Version 4
SHEET 1 984 680
WIRE 464 -48 0 -48
WIRE 464 0 464 -48
WIRE 0 48 0 -48
WIRE 464 144 464 64
WIRE 464 144 368 144
WIRE 512 144 464 144
WIRE 0 160 0 128
WIRE 512 160 512 144
WIRE 368 176 368 144
WIRE 368 272 368 240
WIRE 432 272 368 272
WIRE 512 272 512 240
WIRE 512 272 432 272
WIRE 432 320 432 272
FLAG 0 160 0
FLAG 432 320 0
SYMBOL voltage 0 32 R0
WINDOW 123 24 124 Left 2
WINDOW 39 0 0 Left 0
SYMATTR Value2 AC 1 0
SYMATTR InstName V1
SYMATTR Value ""
SYMBOL cap 352 176 R0
SYMATTR InstName C1
SYMATTR Value 2.2n
SYMBOL ind 496 144 R0
SYMATTR InstName L1
SYMATTR Value 0.1µ
SYMBOL cap 448 0 R0
SYMATTR InstName C2
SYMATTR Value 10p
TEXT -32 184 Left 2 !.ac lin 10000 10Meg 12Meg
