Version 4
SHEET 1 880 680
WIRE 544 32 112 32
WIRE 112 96 112 32
WIRE 544 192 544 32
WIRE 544 192 480 192
WIRE 624 192 544 192
WIRE 112 208 112 176
WIRE 624 208 624 192
WIRE 480 224 480 192
WIRE 480 320 480 288
WIRE 544 320 480 320
WIRE 624 320 624 288
WIRE 624 320 544 320
WIRE 544 368 544 320
FLAG 112 208 0
FLAG 544 368 0
SYMBOL voltage 112 80 R0
WINDOW 123 24 124 Left 2
WINDOW 39 0 0 Left 0
SYMATTR InstName V1
SYMATTR Value ""
SYMATTR Value2 AC 1 0
SYMBOL cap 464 224 R0
SYMATTR InstName C2
SYMATTR Value 22n
SYMBOL ind 608 192 R0
SYMATTR InstName L1
SYMATTR Value 0.1µ
TEXT 78 232 Left 2 !.ac dec 1000 1 10G
