Version 4
SHEET 1 880 680
WIRE 384 -80 256 -80
WIRE 384 -48 384 -80
WIRE 384 96 384 32
WIRE 256 144 256 -80
WIRE 208 224 112 224
WIRE 256 336 256 320
WIRE 112 352 112 304
FLAG 112 352 0
FLAG 384 96 0
FLAG 256 336 0
SYMBOL nmos 208 144 R0
SYMATTR InstName M1
SYMBOL voltage 112 208 R0
WINDOW 123 0 0 Left 0
WINDOW 39 0 0 Left 0
SYMATTR InstName V1
SYMATTR Value 3
SYMBOL voltage 384 -64 R0
WINDOW 123 0 0 Left 0
WINDOW 39 0 0 Left 0
SYMATTR InstName V2
SYMATTR Value 5
SYMBOL res 240 224 R0
SYMATTR InstName R1
SYMATTR Value 100
TEXT 576 192 Left 2 !.dc V1 0 5 0.1
