Version 4
SHEET 1 1104 680
WIRE 480 -96 240 -96
WIRE 480 -64 480 -96
WIRE 240 48 240 -96
WIRE 480 64 480 16
WIRE -224 224 -288 224
WIRE 16 224 -160 224
WIRE 240 224 240 128
WIRE 240 224 16 224
WIRE -288 288 -288 224
WIRE 16 352 16 288
WIRE -288 432 -288 368
FLAG -288 432 0
FLAG 480 64 0
FLAG 16 352 0
SYMBOL voltage -288 272 R0
WINDOW 3 -128 70 Left 2
WINDOW 123 -128 42 Left 2
WINDOW 39 0 0 Left 0
SYMATTR Value ""
SYMATTR Value2 AC 1 0
SYMATTR InstName V1
SYMBOL cap -160 208 R90
WINDOW 0 0 32 VBottom 2
WINDOW 3 32 32 VTop 2
SYMATTR InstName C1
SYMATTR Value 20p
SYMBOL res 224 32 R0
SYMATTR InstName R2
SYMATTR Value 1000000
SYMBOL voltage 480 -80 R0
WINDOW 3 24 44 Left 2
WINDOW 123 -128 42 Left 2
WINDOW 39 0 0 Left 0
SYMATTR Value {Vtest}
SYMATTR InstName V2
SYMBOL varactor 32 288 R180
WINDOW 0 24 64 Left 2
WINDOW 3 24 0 Left 2
SYMATTR InstName D1
SYMATTR Value MV2201
SYMATTR Type diode
TEXT -88 -64 Left 2 !.param Ctest 18p
TEXT 744 8 Left 2 !.step param Vtest list 1 2 3 4 5
TEXT -720 104 Left 2 !.ac dec 10000000 10Meg 300Meg
TEXT 424 424 Left 2 !;.op dec 10000000 10Meg 300Meg
