Version 4
SHEET 1 6448 680
WIRE 4848 288 4752 288
WIRE 4672 352 4672 288
WIRE 4848 384 4848 288
WIRE 4672 496 4672 432
WIRE 4848 560 4848 448
WIRE 4960 560 4848 560
WIRE 5024 560 4960 560
WIRE 4960 640 4960 560
FLAG 4672 496 0
FLAG 4960 640 0
SYMBOL voltage 4672 336 R0
WINDOW 3 -128 70 Left 2
WINDOW 123 -128 42 Left 2
WINDOW 39 0 0 Left 0
SYMATTR Value ""
SYMATTR Value2 AC 1 0
SYMATTR InstName V1
SYMBOL cap 4832 384 R0
SYMATTR InstName C1
SYMATTR Value 10p
SYMBOL res 4768 272 R90
WINDOW 0 0 56 VBottom 2
WINDOW 3 32 56 VTop 2
SYMATTR InstName R1
SYMATTR Value 50
TEXT 5616 240 Left 2 !.step param Ctest list 10p 20p 30p 40p 50p
TEXT 5616 304 Left 2 !.MODEL SMV1130-079LF d CJ0=25.8p Vj=10 M=3.7  Rs=0.8
TEXT 5616 368 Left 2 !.lib C:\\Users\\piyus\\Projects\\public\\fm_radio\\sims\\varactor_model.lib
TEXT 5592 96 Left 2 !.ac dec 10000 10k 100G
