Version 4
SHEET 1 880 680
WIRE 96 64 0 64
WIRE 144 64 96 64
WIRE 96 96 96 64
WIRE 416 96 416 48
WIRE 416 96 288 96
WIRE 0 192 0 64
WIRE 96 240 96 176
WIRE 0 336 0 272
WIRE 96 384 96 320
FLAG 0 336 0
FLAG 96 384 0
SYMBOL voltage 0 176 R0
WINDOW 123 24 124 Left 2
WINDOW 39 0 0 Left 0
WINDOW 3 -295 56 Left 2
SYMATTR Value2 AC 1 0
SYMATTR Value SINE(0 1 3000k)
SYMATTR InstName V1
SYMBOL SpecialFunctions\\modulate 144 64 R0
WINDOW 3 16 -20 Left 2
SYMATTR Value mark=7700k,space=10700k
SYMATTR InstName A1
SYMBOL res 80 80 R0
SYMATTR InstName R1
SYMATTR Value 1000
SYMBOL res 80 224 R0
SYMATTR InstName R2
SYMATTR Value 1
TEXT 304 256 Left 2 !.tran 2u
