Version 4
SHEET 1 880 680
WIRE 32 80 -112 80
WIRE 192 80 112 80
WIRE 336 80 192 80
WIRE 192 112 192 80
WIRE 336 176 336 144
WIRE -112 208 -112 160
WIRE 192 208 192 176
WIRE 336 288 336 256
FLAG -112 208 0
FLAG 192 208 0
FLAG 336 288 0
SYMBOL cap 176 112 R0
SYMATTR InstName C1
SYMATTR Value 1p
SYMBOL ind 16 96 R270
WINDOW 0 32 56 VTop 2
WINDOW 3 5 56 VBottom 2
SYMATTR InstName L1
SYMATTR Value 1µ
SYMBOL voltage -112 64 R0
WINDOW 123 24 124 Left 2
WINDOW 39 0 0 Left 0
SYMATTR InstName V1
SYMATTR Value ""
SYMATTR Value2 AC 1 0
SYMBOL res 320 160 R0
SYMATTR InstName R1
SYMATTR Value 500
SYMBOL cap 320 80 R0
SYMATTR InstName C2
SYMATTR Value 2p
TEXT 616 232 Left 2 !.ac dec 1000 100 1G
