Version 4
SHEET 1 1056 680
WIRE -672 112 -720 112
WIRE -544 112 -592 112
WIRE -368 112 -544 112
WIRE -144 112 -368 112
WIRE -720 176 -720 112
WIRE -544 192 -544 112
WIRE -368 208 -368 112
WIRE -720 320 -720 256
WIRE -544 384 -544 272
WIRE -432 384 -544 384
WIRE -368 384 -368 272
WIRE -368 384 -432 384
WIRE -432 464 -432 384
FLAG -720 320 0
FLAG -432 464 0
DATAFLAG -560 112 ""
SYMBOL ind -560 176 R0
SYMATTR InstName L1
SYMATTR Value 100n
SYMBOL voltage -720 160 R0
WINDOW 3 -128 70 Left 2
WINDOW 123 -128 42 Left 2
WINDOW 39 0 0 Left 0
SYMATTR Value ""
SYMATTR Value2 AC 1 0
SYMATTR InstName V2
SYMBOL res -576 96 R90
WINDOW 0 0 56 VBottom 2
WINDOW 3 32 56 VTop 2
SYMATTR InstName R2
SYMATTR Value 50
SYMBOL cap -384 208 R0
SYMATTR InstName C1
SYMATTR Value {Ctest}
TEXT 224 64 Left 2 !.step param Ctest list 10p 20p 30p 40p 50p
TEXT 224 128 Left 2 !.MODEL SMV1130-079LF d CJ0=25.8p Vj=10 M=3.7  Rs=0.8
TEXT 224 192 Left 2 !.lib C:\\Users\\piyus\\Projects\\public\\fm_radio\\sims\\varactor_model.lib
TEXT 200 -80 Left 2 !.ac dec 10000 10k 100G
