Version 4
SHEET 1 880 680
SYMBOL res 144 112 R0
SYMATTR InstName R1
SYMATTR Value 10
SYMBOL cap 256 128 R0
SYMATTR InstName C1
