Version 4
SHEET 1 880 680
WIRE 272 32 96 32
WIRE 416 32 272 32
WIRE 416 80 416 32
WIRE 96 112 96 32
WIRE 272 128 272 32
WIRE 416 176 416 160
WIRE 96 304 96 192
WIRE 272 304 272 208
WIRE 272 304 96 304
WIRE 416 304 416 256
WIRE 416 304 272 304
SYMBOL ind 80 96 R0
SYMATTR InstName L1
SYMBOL varactor_model 272 48 R270
SYMATTR InstName U1
SYMBOL res 432 272 R180
WINDOW 0 36 76 Left 2
WINDOW 3 36 40 Left 2
SYMATTR InstName R1
SYMATTR Value 1000000
SYMBOL voltage 416 64 R0
WINDOW 0 32 56 VTop 2
WINDOW 3 4 56 VTop 2
WINDOW 123 0 0 Left 0
WINDOW 39 0 0 Left 0
SYMATTR InstName V1
SYMATTR Value {Vtest}
