Version 4
SHEET 1 1072 680
WIRE 80 -48 -16 -48
WIRE 320 -48 80 -48
WIRE 80 -16 80 -48
WIRE 672 -16 464 -16
WIRE 832 -16 752 -16
WIRE 976 -16 832 -16
WIRE 832 16 832 -16
WIRE 976 16 976 -16
WIRE -16 80 -16 -48
WIRE 80 128 80 64
WIRE 832 128 832 96
WIRE 912 128 832 128
WIRE 976 128 976 80
WIRE 976 128 912 128
WIRE 912 176 912 128
WIRE -16 224 -16 160
WIRE 80 272 80 208
FLAG -16 224 0
FLAG 80 272 0
FLAG 912 176 0
SYMBOL voltage -16 64 R0
WINDOW 123 24 124 Left 2
WINDOW 39 0 0 Left 0
WINDOW 3 -295 56 Left 2
SYMATTR Value2 AC 1 0
SYMATTR Value SINE(0 1 3000k)
SYMATTR InstName V1
SYMBOL SpecialFunctions\\modulate 320 -48 R0
WINDOW 3 -4 -105 Left 2
SYMATTR Value mark=99900k,space=100000k
SYMATTR InstName A1
SYMBOL res 64 -32 R0
SYMATTR InstName R1
SYMATTR Value 1000
SYMBOL res 64 112 R0
SYMATTR InstName R2
SYMATTR Value 1
SYMBOL res 768 -32 R90
WINDOW 0 0 56 VBottom 2
WINDOW 3 32 56 VTop 2
SYMATTR InstName R3
SYMATTR Value 49.9
SYMBOL ind 816 0 R0
SYMATTR InstName L1
SYMATTR Value 1µ
SYMBOL cap 960 16 R0
SYMATTR InstName C1
SYMATTR Value 2.17 pF
TEXT 480 144 Left 2 !.tran 2u
