Version 4.1
SHEET 1 880 680
WIRE -608 80 -720 80
WIRE -512 80 -608 80
WIRE -272 80 -432 80
WIRE 288 80 -80 80
WIRE -272 96 -272 80
WIRE -80 160 -80 80
WIRE -720 192 -720 80
WIRE -608 192 -608 80
WIRE 288 192 288 80
WIRE -272 208 -272 176
WIRE -208 208 -272 208
WIRE -272 240 -272 208
WIRE -720 336 -720 272
WIRE -608 336 -608 256
WIRE -608 336 -720 336
WIRE -528 336 -608 336
WIRE -272 336 -272 320
WIRE -272 336 -448 336
WIRE -80 336 -80 240
WIRE 288 368 288 272
FLAG -80 336 0
FLAG 288 368 0
FLAG -208 288 0
DATAFLAG 352 368 ""
SYMBOL ind -64 256 R180
WINDOW 0 36 80 Left 2
WINDOW 3 25 122 Left 2
SYMATTR InstName L2
SYMATTR Value 5µ
SYMATTR SpiceLine Rser=0.1
SYMBOL voltage 288 176 R0
WINDOW 3 24 152 Left 2
WINDOW 123 24 124 Left 2
WINDOW 39 0 0 Left 0
SYMATTR Value 0
SYMATTR Value2 AC 1 0
SYMATTR InstName V2
SYMBOL ind -256 192 R180
WINDOW 0 36 80 Left 2
WINDOW 3 36 40 Left 2
SYMATTR InstName L1
SYMATTR Value 40µ
SYMATTR SpiceLine Rser=.1
SYMBOL ind -256 336 R180
WINDOW 0 36 80 Left 2
WINDOW 3 36 40 Left 2
SYMATTR InstName L3
SYMATTR Value 40µ
SYMATTR SpiceLine Rser=.1
SYMBOL res -736 176 R0
WINDOW 0 -47 28 Left 2
SYMATTR InstName R1
SYMATTR Value 1.2k
SYMBOL voltage -208 192 R0
WINDOW 123 0 0 Left 0
WINDOW 39 0 0 Left 0
SYMATTR InstName V1
SYMATTR Value 3.3
SYMBOL cap -624 192 R0
SYMATTR InstName C2
SYMATTR Value 0.7p
SYMBOL ind -528 96 R270
WINDOW 0 32 56 VTop 2
WINDOW 3 5 56 VBottom 2
SYMATTR InstName L6
SYMATTR Value 0.7n
SYMBOL ind -432 320 R90
WINDOW 0 5 56 VBottom 2
WINDOW 3 32 56 VTop 2
SYMATTR InstName L7
SYMATTR Value 0.7n
TEXT 48 -80 Left 2 !.ac lin 1000 0.1Meg 12Meg
TEXT -272 -64 Left 2 !K. L1 L2 L3 1
