Version 4.1
SHEET 1 880 680
WIRE 240 -96 208 -96
WIRE 400 -96 320 -96
WIRE -128 96 -160 96
WIRE 0 96 -64 96
WIRE 176 96 80 96
WIRE 272 160 272 80
WIRE -160 176 -160 96
WIRE 176 176 176 96
WIRE 208 176 208 -96
WIRE 208 176 176 176
WIRE 240 176 208 176
WIRE 400 192 400 -96
WIRE 400 192 304 192
WIRE 576 192 464 192
WIRE 208 208 176 208
WIRE 240 208 208 208
WIRE 176 224 176 208
WIRE 176 224 128 224
WIRE -160 304 -160 256
WIRE -144 304 -160 304
WIRE -16 304 -80 304
WIRE 128 304 128 224
WIRE 128 304 64 304
WIRE 768 352 640 352
WIRE 768 432 768 352
WIRE 416 512 288 512
WIRE 592 512 496 512
WIRE 640 512 640 432
WIRE 640 512 592 512
WIRE 128 528 128 464
WIRE 176 528 128 528
WIRE 208 528 208 464
WIRE 208 528 176 528
WIRE 640 528 640 512
FLAG 176 608 0
FLAG 768 512 0
FLAG 640 608 0
FLAG 592 576 0
FLAG 272 0 0
FLAG 272 224 0
FLAG 208 288 0
SYMBOL OpAmps\\LT6202 272 192 R0
SYMATTR InstName U1
SYMBOL cap -64 80 R90
WINDOW 0 0 32 VBottom 2
WINDOW 3 32 32 VTop 2
SYMATTR InstName C1
SYMATTR Value 1µ
SYMBOL cap -80 288 R90
WINDOW 0 0 32 VBottom 2
WINDOW 3 32 32 VTop 2
SYMATTR InstName C2
SYMATTR Value 1µ
SYMBOL res 192 368 R0
SYMATTR InstName R1
SYMATTR Value 200
SYMBOL res 112 368 R0
SYMATTR InstName R2
SYMATTR Value 200
SYMBOL voltage 176 512 R0
WINDOW 123 0 0 Left 0
WINDOW 39 0 0 Left 0
SYMATTR InstName V1
SYMATTR Value 3.3
SYMBOL res 512 496 R90
WINDOW 0 0 56 VBottom 2
WINDOW 3 32 56 VTop 2
SYMATTR InstName R3
SYMATTR Value 200
SYMBOL cap 576 512 R0
SYMATTR InstName C3
SYMATTR Value 1µ
SYMBOL voltage 768 416 R0
WINDOW 123 0 0 Left 0
WINDOW 39 0 0 Left 0
SYMATTR InstName V2
SYMATTR Value 5
SYMBOL res 624 336 R0
SYMATTR InstName R4
SYMATTR Value 5.1k
SYMBOL res 624 512 R0
SYMATTR InstName R5
SYMATTR Value 5.1k
SYMBOL voltage 272 96 R180
WINDOW 123 0 0 Left 0
WINDOW 39 0 0 Left 0
SYMATTR InstName V3
SYMATTR Value 5
SYMBOL cap 464 176 R90
WINDOW 0 0 32 VBottom 2
WINDOW 3 32 32 VTop 2
SYMATTR InstName C4
SYMATTR Value 1µ
SYMBOL voltage -160 160 R0
WINDOW 3 -253 48 Left 2
WINDOW 123 0 0 Left 0
WINDOW 39 0 0 Left 0
SYMATTR InstName V4
SYMATTR Value SINE(0 1 20)
SYMBOL res 336 -112 R90
WINDOW 0 0 56 VBottom 2
WINDOW 3 32 56 VTop 2
SYMATTR InstName R6
SYMATTR Value 200
SYMBOL res 96 80 R90
WINDOW 0 0 56 VBottom 2
WINDOW 3 32 56 VTop 2
SYMATTR InstName R7
SYMATTR Value 200
SYMBOL res -32 320 R270
WINDOW 0 32 56 VTop 2
WINDOW 3 0 56 VBottom 2
SYMATTR InstName R8
SYMATTR Value 200
SYMBOL res 192 192 R0
SYMATTR InstName R9
SYMATTR Value 200
TEXT 464 -152 Left 2 !.tran 100m
