Version 4
SHEET 1 880 680
WIRE -64 64 -144 64
WIRE -64 112 -64 64
WIRE 64 112 0 112
WIRE 160 112 64 112
WIRE 320 112 240 112
WIRE 0 128 0 112
WIRE -144 176 -144 144
WIRE -144 176 -272 176
WIRE -144 192 -144 176
WIRE 0 224 0 208
WIRE 64 224 64 176
WIRE 64 224 0 224
WIRE 160 224 64 224
WIRE 320 224 320 192
WIRE 320 224 240 224
WIRE -272 304 -272 256
WIRE -144 304 -144 272
WIRE -64 304 -64 224
WIRE -64 304 -144 304
FLAG -272 304 0
SYMBOL ind 144 128 R270
WINDOW 0 32 56 VTop 2
WINDOW 3 5 56 VBottom 2
SYMATTR InstName L1
SYMATTR Value 100p
SYMBOL cap 48 112 R0
SYMATTR InstName C1
SYMATTR Value 10p
SYMBOL ind 144 240 R270
WINDOW 0 32 56 VTop 2
WINDOW 3 5 56 VBottom 2
SYMATTR InstName L2
SYMATTR Value 100p
SYMBOL ind -128 160 R180
WINDOW 0 36 80 Left 2
WINDOW 3 36 40 Left 2
SYMATTR InstName L3
SYMATTR Value 10p
SYMBOL ind -128 288 R180
WINDOW 0 36 80 Left 2
WINDOW 3 36 40 Left 2
SYMATTR InstName L4
SYMATTR Value 10p
SYMBOL res -288 160 R0
SYMATTR InstName R1
SYMATTR Value 1000
SYMBOL voltage 320 96 R0
WINDOW 123 24 124 Left 2
WINDOW 39 0 0 Left 0
SYMATTR InstName V1
SYMATTR Value ""
SYMATTR Value2 AC 1 0
SYMBOL res -16 112 R0
SYMATTR InstName R2
SYMATTR Value 50
TEXT -292 328 Left 2 !.ac lin 10000 80Meg 120Meg
