Version 4
SHEET 1 1640 680
WIRE 480 -64 416 -64
WIRE 608 -64 544 -64
WIRE 1152 -64 688 -64
WIRE 416 0 416 -64
WIRE 1152 0 1152 -64
WIRE 416 144 416 80
WIRE 1152 144 1152 80
FLAG 416 144 0
FLAG 1152 144 0
SYMBOL voltage 416 -16 R0
WINDOW 123 40 48 Left 2
WINDOW 39 39 77 Left 2
SYMATTR Value2 AC 1 0
SYMATTR SpiceLine Rser=49.9
SYMATTR InstName V2
SYMATTR Value ""
SYMBOL cap 480 -48 R270
WINDOW 0 32 32 VTop 2
WINDOW 3 0 32 VBottom 2
SYMATTR InstName C1
SYMATTR Value 12p
SYMBOL ind 592 -48 R270
WINDOW 0 32 56 VTop 2
WINDOW 3 5 56 VBottom 2
SYMATTR InstName L1
SYMATTR Value 226n
SYMBOL res 1136 -16 R0
SYMATTR InstName RL1
SYMATTR Value 49.9
TEXT 432 -352 Left 2 !.ac dec 1001 46.49Meg 204.4Meg
TEXT 896 -352 Left 2 ;2nd Order Bessel Bandpass\nConventional, Series First\nLower Cutoff Freq. = 87.9 MHz; Upper Cutoff Freq. = 108.1 MHz\n\n\nrf-tools.com | Sep 23 2024 00:26
