Version 4.1
SHEET 1 1692 680
WIRE 1008 -144 560 -144
WIRE 1584 -144 1216 -144
WIRE 1008 -128 1008 -144
WIRE 1216 -64 1216 -144
WIRE 560 -32 560 -144
WIRE 1584 -32 1584 -144
WIRE 1008 -16 1008 -48
WIRE 1088 -16 1008 -16
WIRE 1008 16 1008 -16
WIRE 560 112 560 48
WIRE 1008 112 1008 96
WIRE 1008 112 560 112
WIRE 1216 112 1216 16
WIRE 1584 144 1584 48
FLAG 1088 64 0
FLAG 1216 112 0
FLAG 1584 144 0
DATAFLAG 1648 144 ""
SYMBOL ind 1024 -32 R180
WINDOW 0 36 80 Left 2
WINDOW 3 36 40 Left 2
SYMATTR InstName L1
SYMATTR Value 20µ
SYMBOL ind 1232 32 R180
WINDOW 0 36 80 Left 2
WINDOW 3 25 122 Left 2
SYMATTR InstName L2
SYMATTR Value 5µ
SYMATTR SpiceLine Rser=0.1
SYMBOL ind 1024 112 R180
WINDOW 0 36 80 Left 2
WINDOW 3 36 40 Left 2
SYMATTR InstName L3
SYMATTR Value 20µ
SYMBOL res 544 -48 R0
WINDOW 0 -47 28 Left 2
SYMATTR InstName R1
SYMATTR Value 1.2k
SYMBOL voltage 1088 -32 R0
WINDOW 123 0 0 Left 0
WINDOW 39 0 0 Left 0
SYMATTR InstName V1
SYMATTR Value 3.3
SYMBOL voltage 1584 -48 R0
WINDOW 3 24 152 Left 2
WINDOW 123 24 124 Left 2
WINDOW 39 0 0 Left 0
SYMATTR Value 0
SYMATTR Value2 AC 1 0
SYMATTR InstName V2
TEXT 1088 -224 Left 2 !K. L1 L2 L3 1
TEXT 1376 -288 Left 2 !.ac lin 1000 0.1Meg 12Meg
