Version 4
SHEET 1 880 680
WIRE 416 144 384 144
WIRE 304 160 176 160
WIRE 384 160 384 144
WIRE 384 160 304 160
WIRE 256 240 176 240
WIRE 304 240 304 224
WIRE 304 240 256 240
WIRE 416 240 304 240
WIRE 496 240 496 224
WIRE 256 272 256 240
FLAG 256 272 0
SYMBOL res 160 144 R0
SYMATTR InstName R1
SYMATTR Value 1.2k
SYMBOL cap 288 160 R0
SYMATTR InstName C1
SYMATTR Value 0.7p
SYMBOL ind 400 160 R270
WINDOW 0 32 56 VTop 2
WINDOW 3 5 56 VBottom 2
SYMATTR InstName L1
SYMATTR Value 0.7n
SYMBOL ind 512 224 R90
WINDOW 0 5 56 VBottom 2
WINDOW 3 32 56 VTop 2
SYMATTR InstName L2
SYMATTR Value 0.7n
SYMBOL voltage 496 128 R0
WINDOW 123 24 124 Left 2
WINDOW 39 0 0 Left 0
SYMATTR InstName V1
SYMATTR Value ""
SYMATTR Value2 AC 1 0
TEXT 440 40 Left 2 !.ac dec 10000 70Meg 140Meg
