Version 4
SHEET 1 880 680
WIRE 144 80 64 80
WIRE 352 80 224 80
WIRE 64 128 64 80
WIRE 352 128 352 80
WIRE 64 256 64 208
WIRE 352 256 352 208
FLAG 64 256 0
FLAG 352 256 0
SYMBOL voltage 64 112 R0
WINDOW 123 0 0 Left 0
WINDOW 39 0 0 Left 0
SYMATTR InstName V1
SYMATTR Value SINE(0 1 1000k 0 0 0 1000)
SYMBOL res 240 64 R90
WINDOW 0 0 56 VBottom 2
WINDOW 3 32 56 VTop 2
SYMATTR InstName R1
SYMATTR Value 50
SYMBOL res 336 112 R0
SYMATTR InstName R2
SYMATTR Value 1Meg
TEXT -88 136 Left 2 !.tran 1u
