Version 4.1
SHEET 1 880 680
WIRE -32 -224 -288 -224
WIRE 368 -224 128 -224
WIRE 480 -224 368 -224
WIRE 640 -224 560 -224
WIRE 800 -224 720 -224
WIRE 128 -192 128 -224
WIRE -32 -144 -32 -224
WIRE 368 -128 368 -224
WIRE 800 -128 800 -224
WIRE -288 -112 -288 -224
WIRE 128 -80 128 -112
WIRE 160 -80 128 -80
WIRE 272 -80 240 -80
WIRE 128 -64 128 -80
WIRE 272 -16 272 -80
WIRE -288 64 -288 -32
WIRE -48 64 -288 64
WIRE -32 64 -32 -64
WIRE -32 64 -48 64
WIRE 128 64 128 16
WIRE 368 64 368 -64
WIRE 368 64 128 64
WIRE 464 64 368 64
WIRE 640 64 544 64
WIRE 800 64 800 -48
WIRE 800 64 720 64
WIRE -48 128 -48 64
FLAG -48 128 0
FLAG 272 -16 0
DATAFLAG -224 64 ""
SYMBOL voltage -288 -128 R0
WINDOW 3 24 152 Left 2
WINDOW 123 24 124 Left 2
WINDOW 39 0 0 Left 0
SYMATTR Value 0
SYMATTR Value2 AC 1 0
SYMATTR InstName V1
SYMBOL ind 624 80 R270
WINDOW 0 32 56 VTop 2
WINDOW 3 5 56 VBottom 2
SYMATTR InstName L1
SYMATTR Value 0.91n
SYMBOL ind 624 -208 R270
WINDOW 0 32 56 VTop 2
WINDOW 3 5 56 VBottom 2
SYMATTR InstName L2
SYMATTR Value 0.91n
SYMBOL res 784 -144 R0
SYMATTR InstName R1
SYMATTR Value 28.5
SYMBOL ind 144 -96 R180
WINDOW 0 36 80 Left 2
WINDOW 3 36 40 Left 2
SYMATTR InstName L3
SYMATTR Value 0.25µ
SYMBOL ind -16 -48 R180
WINDOW 0 36 80 Left 2
WINDOW 3 36 40 Left 2
SYMATTR InstName L4
SYMATTR Value 1µ
SYMATTR SpiceLine Rser=0.0001
SYMBOL ind 144 32 R180
WINDOW 0 36 80 Left 2
WINDOW 3 36 40 Left 2
SYMATTR InstName L5
SYMATTR Value 0.25µ
SYMBOL res 256 -96 R90
WINDOW 0 0 56 VBottom 2
WINDOW 3 32 56 VTop 2
SYMATTR InstName R2
SYMATTR Value 3
SYMBOL cap 352 -128 R0
SYMATTR InstName C1
SYMATTR Value 27p
SYMBOL ind 464 -208 R270
WINDOW 0 32 56 VTop 2
WINDOW 3 5 56 VBottom 2
SYMATTR InstName L6
SYMATTR Value 19n
SYMBOL ind 448 80 R270
WINDOW 0 32 56 VTop 2
WINDOW 3 5 56 VBottom 2
SYMATTR InstName L7
SYMATTR Value 19n
TEXT -336 240 Left 2 !.ac lin 1000 80Meg 120Meg
TEXT -8 -280 Left 2 !K. L4 L3 L5 1
