Version 4
SHEET 1 880 680
WIRE 704 -176 496 -176
WIRE 704 -144 704 -176
WIRE 400 -64 336 -64
WIRE 496 -64 496 -176
WIRE 496 -64 480 -64
WIRE 576 -64 496 -64
WIRE 704 -16 704 -64
WIRE 336 0 336 -64
WIRE 576 32 576 0
WIRE -80 176 -304 176
WIRE 144 176 -16 176
WIRE 336 176 336 80
WIRE 336 176 240 176
WIRE 448 176 336 176
WIRE 592 176 512 176
WIRE -304 320 -304 256
FLAG 576 32 0
FLAG 704 -16 0
FLAG 192 208 0
FLAG -304 320 0
SYMBOL MAR-8ASM+___36mA___Plus25 192 176 R0
SYMATTR InstName U1
SYMBOL cap -16 160 R90
WINDOW 0 0 32 VBottom 2
WINDOW 3 32 32 VTop 2
SYMATTR InstName C1
SYMATTR Value 0.1µ
SYMBOL cap 512 160 R90
WINDOW 0 0 32 VBottom 2
WINDOW 3 32 32 VTop 2
SYMATTR InstName C2
SYMATTR Value 0.1µ
SYMBOL ind 320 -16 R0
SYMATTR InstName L1
SYMATTR Value 10µ
SYMBOL cap 592 0 R180
WINDOW 0 24 56 Left 2
WINDOW 3 24 8 Left 2
SYMATTR InstName C3
SYMATTR Value 0.1µ
SYMBOL res 496 -80 R90
WINDOW 0 0 56 VBottom 2
WINDOW 3 32 56 VTop 2
SYMATTR InstName R1
SYMATTR Value 226
SYMBOL voltage 704 -160 R0
WINDOW 123 0 0 Left 0
WINDOW 39 0 0 Left 0
SYMATTR InstName V1
SYMATTR Value 12
SYMBOL voltage -304 160 R0
WINDOW 123 24 124 Left 2
WINDOW 39 0 0 Left 0
SYMATTR InstName V2
SYMATTR Value ""
SYMATTR Value2 AC 1 0
TEXT -338 344 Left 2 !.ac lin 10000 20Meg 200Meg
