Version 4.1
SHEET 1 880 740
WIRE -800 64 -928 64
WIRE -704 64 -800 64
WIRE -480 64 -624 64
WIRE 96 64 -272 64
WIRE -480 80 -480 64
WIRE -272 144 -272 64
WIRE -928 176 -928 64
WIRE -800 176 -800 64
WIRE 96 176 96 64
WIRE -480 192 -480 160
WIRE -400 192 -480 192
WIRE -480 224 -480 192
WIRE -928 320 -928 256
WIRE -800 320 -800 240
WIRE -800 320 -928 320
WIRE -720 320 -800 320
WIRE -480 320 -480 304
WIRE -480 320 -640 320
WIRE -272 320 -272 224
WIRE 96 352 96 256
FLAG -400 272 0
FLAG -272 320 0
FLAG 96 352 0
DATAFLAG 160 352 ""
SYMBOL ind -464 176 R180
WINDOW 0 36 80 Left 2
WINDOW 3 36 40 Left 2
SYMATTR InstName L1
SYMATTR Value 20µ
SYMBOL ind -256 240 R180
WINDOW 0 36 80 Left 2
WINDOW 3 25 122 Left 2
SYMATTR InstName L2
SYMATTR Value 5µ
SYMATTR SpiceLine Rser=0.1
SYMBOL ind -464 320 R180
WINDOW 0 36 80 Left 2
WINDOW 3 36 40 Left 2
SYMATTR InstName L3
SYMATTR Value 20µ
SYMBOL res -944 160 R0
WINDOW 0 -47 28 Left 2
SYMATTR InstName R3
SYMATTR Value 1.2k
SYMBOL cap -816 176 R0
SYMATTR InstName C2
SYMATTR Value 0.7p
SYMBOL ind -720 80 R270
WINDOW 0 32 56 VTop 2
WINDOW 3 5 56 VBottom 2
SYMATTR InstName L8
SYMATTR Value 0.7n
SYMBOL ind -624 304 R90
WINDOW 0 5 56 VBottom 2
WINDOW 3 32 56 VTop 2
SYMATTR InstName L9
SYMATTR Value 0.7n
SYMBOL voltage -400 176 R0
WINDOW 123 0 0 Left 0
WINDOW 39 0 0 Left 0
SYMATTR InstName V1
SYMATTR Value 3.3
SYMBOL voltage 96 160 R0
WINDOW 3 24 152 Left 2
WINDOW 123 24 124 Left 2
WINDOW 39 0 0 Left 0
SYMATTR Value 0
SYMATTR Value2 AC 1 0
SYMATTR InstName V2
TEXT -400 -16 Left 2 !K. L1 L2 L3 1
TEXT -144 -96 Left 2 !.ac lin 1000 0.1Meg 12Meg
