Version 4.1
SHEET 1 1048 680
WIRE -304 -192 -560 -192
WIRE 96 -192 -144 -192
WIRE 208 -192 96 -192
WIRE 368 -192 288 -192
WIRE 528 -192 448 -192
WIRE -144 -160 -144 -192
WIRE -304 -112 -304 -192
WIRE 96 -96 96 -192
WIRE 528 -96 528 -192
WIRE -560 -80 -560 -192
WIRE -144 -48 -144 -80
WIRE -112 -48 -144 -48
WIRE 0 -48 -32 -48
WIRE -144 -32 -144 -48
WIRE 0 16 0 -48
WIRE -560 96 -560 0
WIRE -320 96 -560 96
WIRE -304 96 -304 -32
WIRE -304 96 -320 96
WIRE -144 96 -144 48
WIRE 96 96 96 -32
WIRE 96 96 -144 96
WIRE 192 96 96 96
WIRE 368 96 272 96
WIRE 528 96 528 -16
WIRE 528 96 448 96
WIRE -320 160 -320 96
FLAG -320 160 0
FLAG 0 16 0
DATAFLAG -496 96 ""
SYMBOL voltage -560 -96 R0
WINDOW 3 24 152 Left 2
WINDOW 123 24 124 Left 2
WINDOW 39 0 0 Left 0
SYMATTR Value 0
SYMATTR Value2 AC 1 0
SYMATTR InstName V1
SYMBOL ind 352 112 R270
WINDOW 0 32 56 VTop 2
WINDOW 3 5 56 VBottom 2
SYMATTR InstName L1
SYMATTR Value 0.91n
SYMBOL ind 352 -176 R270
WINDOW 0 32 56 VTop 2
WINDOW 3 5 56 VBottom 2
SYMATTR InstName L2
SYMATTR Value 0.91n
SYMBOL res 512 -112 R0
SYMATTR InstName R1
SYMATTR Value 28.5
SYMBOL ind -128 -64 R180
WINDOW 0 36 80 Left 2
WINDOW 3 36 40 Left 2
SYMATTR InstName L3
SYMATTR Value 0.25µ
SYMBOL ind -288 -16 R180
WINDOW 0 36 80 Left 2
WINDOW 3 36 40 Left 2
SYMATTR InstName L4
SYMATTR Value 1µ
SYMATTR SpiceLine Rser=0.0001
SYMBOL ind -128 64 R180
WINDOW 0 36 80 Left 2
WINDOW 3 36 40 Left 2
SYMATTR InstName L5
SYMATTR Value 0.25µ
SYMBOL res -16 -64 R90
WINDOW 0 0 56 VBottom 2
WINDOW 3 32 56 VTop 2
SYMATTR InstName R2
SYMATTR Value 3
SYMBOL cap 80 -96 R0
SYMATTR InstName C1
SYMATTR Value 27p
SYMBOL ind 192 -176 R270
WINDOW 0 32 56 VTop 2
WINDOW 3 5 56 VBottom 2
SYMATTR InstName L6
SYMATTR Value 19n
SYMBOL ind 176 112 R270
WINDOW 0 32 56 VTop 2
WINDOW 3 5 56 VBottom 2
SYMATTR InstName L7
SYMATTR Value 19n
TEXT -608 272 Left 2 !.ac lin 1000 80Meg 120Meg
TEXT -280 -248 Left 2 !K. L4 L3 L5 1
