Version 4
SHEET 1 1224 400
WIRE 64 0 0 0
WIRE 192 0 128 0
WIRE 320 0 272 0
WIRE 528 0 320 0
WIRE 736 0 528 0
WIRE 0 64 0 0
WIRE 320 64 320 0
WIRE 528 64 528 0
WIRE 736 64 736 0
WIRE 0 208 0 144
WIRE 320 208 320 128
WIRE 528 208 528 144
WIRE 736 208 736 144
FLAG 0 208 0
FLAG 320 208 0
FLAG 528 208 0
FLAG 736 208 0
SYMBOL voltage 0 48 R0
WINDOW 123 40 48 Left 2
WINDOW 39 39 77 Left 2
SYMATTR Value2 AC 1 0
SYMATTR SpiceLine Rser=49.9
SYMATTR InstName V1
SYMATTR Value ""
SYMBOL cap 64 16 R270
WINDOW 0 32 32 VTop 2
WINDOW 3 0 32 VBottom 2
SYMATTR InstName C1
SYMATTR Value 12p
SYMBOL ind 176 16 R270
WINDOW 0 32 56 VTop 2
WINDOW 3 5 56 VBottom 2
SYMATTR InstName L1
SYMATTR Value 226n
SYMBOL cap 304 64 R0
SYMATTR InstName C2
SYMATTR Value 333p
SYMBOL ind 512 48 R0
SYMATTR InstName L2
SYMATTR Value 7.9n
SYMBOL res 720 48 R0
SYMATTR InstName RL
SYMATTR Value 49.9
TEXT 16 -288 Left 2 !.ac dec 1001 46.49Meg 204.4Meg
TEXT 16 -240 Left 2 !.net I(RL) V1
TEXT 480 -288 Left 2 ;2nd Order Bessel Bandpass\nConventional, Series First\nLower Cutoff Freq. = 87.9 MHz; Upper Cutoff Freq. = 108.1 MHz\n\n\nrf-tools.com | Sep 23 2024 00:26
