Version 4.1
SHEET 1 996 680
WIRE -272 208 -512 208
WIRE 96 240 -128 240
WIRE 160 240 96 240
WIRE 784 288 640 288
WIRE 832 288 784 288
WIRE 160 368 160 304
WIRE 160 368 80 368
WIRE 240 368 160 368
WIRE 288 368 240 368
WIRE 288 400 288 368
WIRE 80 416 80 368
WIRE 80 512 80 480
WIRE 176 512 80 512
WIRE 288 512 288 480
WIRE 288 512 176 512
WIRE 176 560 176 512
FLAG -512 288 0
FLAG 176 560 0
FLAG 96 240 n1
FLAG 240 368 n2
FLAG 784 288 output
SYMBOL SpecialFunctions\\modulate -272 208 R0
WINDOW 3 16 -20 Left 2
SYMATTR InstName A1
SYMATTR Value mark=2k space = 1k
SYMBOL voltage -512 192 R0
WINDOW 123 0 0 Left 0
WINDOW 39 0 0 Left 0
SYMATTR InstName V2
SYMATTR Value SINE(0.5 0.5 100)
SYMBOL cap 144 240 R0
SYMATTR InstName C1
SYMATTR Value 10p
SYMBOL ind 272 384 R0
SYMATTR InstName L1
SYMATTR Value 0.1µ
SYMBOL cap 64 416 R0
SYMATTR InstName C2
SYMATTR Value 112.5m
TEXT 16 -80 Left 2 !.tran 50u
TEXT 616 120 Left 2 !B1 output 0 V=V(n1)*V(n2)
