.SUBCKT MAR-8ASM+___36mA___Plus25  1 2 3
* Pin 3 is the reference plane (usually it should be connected to GND)
* Mini-Circuits
* S2P DATA File Format
* Type: MMIC Amplifier
* Model: MAR-8ASM       Reference Data:RDF-994
* Note: All S Parameters are in dB deg format
* TEST CONDITIONS: INPUT POWER: PORT IN=-30dBm, PORT OUT=0dBm; Icc=36mA; Vcc=3.97V@Temp.=+25degC
* 401 Frequency points
*
*    FREQ       dB(S11)   PHS(S11)  dB(S21)   PHS(S21)  dB(S12)   PHS(S12)  dB(S22)   PHS(S22)
* MHZ S DB R 50
* Z1 = 50 Z2 = 50
R1N 1 100 -5.000000e+01
R1P 100 3 100.000000
R2N 2 200 -5.000000e+01
R2P 200 3 100.000000

* S11 FREQ DB
 G0101 3 100 FREQ {V(100,3)}= DB
+(  5.000000e+07Hz, -5.552000e+01, -3.872000e+00)
+(  6.400000e+07Hz, -5.696400e+01, -2.610000e+00)
+(  7.800000e+07Hz, -5.547300e+01,  2.577000e+00)
+(  9.200000e+07Hz, -5.536200e+01, -1.039700e+01)
+(  1.060000e+08Hz, -5.534200e+01, -8.662000e+00)
+(  1.200000e+08Hz, -5.613900e+01, -1.339500e+01)
+(  1.340000e+08Hz, -5.456300e+01, -1.814100e+01)
+(  1.480000e+08Hz, -5.596400e+01, -1.979800e+01)
+(  1.620000e+08Hz, -5.703200e+01, -2.275900e+01)
+(  1.760000e+08Hz, -5.544600e+01, -2.089100e+01)
+(  1.900000e+08Hz, -5.498600e+01, -2.091800e+01)
+(  2.040000e+08Hz, -5.568700e+01, -2.166200e+01)
+(  2.180000e+08Hz, -5.658300e+01, -2.705900e+01)
+(  2.320000e+08Hz, -5.562400e+01, -2.829400e+01)
+(  2.460000e+08Hz, -5.644700e+01, -2.506600e+01)
+(  2.600000e+08Hz, -5.605900e+01, -3.144800e+01)
+(  2.810000e+08Hz, -5.585600e+01, -3.266300e+01)
+(  2.950000e+08Hz, -5.573700e+01, -3.189700e+01)
+(  3.160000e+08Hz, -5.570500e+01, -3.403100e+01)
+(  3.300000e+08Hz, -5.589500e+01, -3.644700e+01)
+(  3.510000e+08Hz, -5.620600e+01, -4.019100e+01)
+(  3.650000e+08Hz, -5.630800e+01, -4.149500e+01)
+(  3.860000e+08Hz, -5.601200e+01, -4.115600e+01)
+(  4.000000e+08Hz, -5.664300e+01, -4.366700e+01)
+(  4.210000e+08Hz, -5.644900e+01, -4.667500e+01)
+(  4.350000e+08Hz, -5.641100e+01, -4.457600e+01)
+(  4.560000e+08Hz, -5.634400e+01, -4.606900e+01)
+(  4.700000e+08Hz, -5.643000e+01, -5.138300e+01)
+(  4.910000e+08Hz, -5.628700e+01, -5.265100e+01)
+(  5.050000e+08Hz, -5.665400e+01, -5.033700e+01)
+(  5.260000e+08Hz, -5.602700e+01, -5.848200e+01)
+(  5.400000e+08Hz, -5.636700e+01, -5.758300e+01)
+(  5.610000e+08Hz, -5.644100e+01, -5.697500e+01)
+(  5.750000e+08Hz, -5.695600e+01, -5.827700e+01)
+(  5.960000e+08Hz, -5.651300e+01, -6.190300e+01)
+(  6.100000e+08Hz, -5.689500e+01, -6.253500e+01)
+(  6.310000e+08Hz, -5.659000e+01, -6.641400e+01)
+(  6.450000e+08Hz, -5.685600e+01, -6.625500e+01)
+(  6.660000e+08Hz, -5.655400e+01, -6.668400e+01)
+(  6.800000e+08Hz, -5.678300e+01, -6.973500e+01)
+(  7.010000e+08Hz, -5.641600e+01, -7.157200e+01)
+(  7.150000e+08Hz, -5.646800e+01, -7.422300e+01)
+(  7.360000e+08Hz, -5.686900e+01, -7.701700e+01)
+(  7.500000e+08Hz, -5.663500e+01, -7.864500e+01)
+(  7.710000e+08Hz, -5.686100e+01, -8.093900e+01)
+(  7.850000e+08Hz, -5.680700e+01, -8.233200e+01)
+(  8.060000e+08Hz, -5.677700e+01, -8.272400e+01)
+(  8.200000e+08Hz, -5.681500e+01, -8.641100e+01)
+(  8.410000e+08Hz, -5.686400e+01, -8.962400e+01)
+(  8.550000e+08Hz, -5.679500e+01, -9.059600e+01)
+(  8.760000e+08Hz, -5.703300e+01, -9.458000e+01)
+(  8.900000e+08Hz, -5.679600e+01, -9.408000e+01)
+(  9.110000e+08Hz, -5.670700e+01, -9.722600e+01)
+(  9.250000e+08Hz, -5.685000e+01, -9.969000e+01)
+(  9.460000e+08Hz, -5.715800e+01, -1.029860e+02)
+(  9.600000e+08Hz, -5.699400e+01, -1.038510e+02)
+(  9.810000e+08Hz, -5.716600e+01, -1.065920e+02)
+(  9.950000e+08Hz, -5.700400e+01, -1.079650e+02)
+(  1.016000e+09Hz, -5.683300e+01, -1.121990e+02)
+(  1.030000e+09Hz, -5.692900e+01, -1.121510e+02)
+(  1.051000e+09Hz, -5.712500e+01, -1.153550e+02)
+(  1.065000e+09Hz, -5.726500e+01, -1.176560e+02)
+(  1.086000e+09Hz, -5.718000e+01, -1.201710e+02)
+(  1.100000e+09Hz, -5.693700e+01, -1.232470e+02)
+(  1.121000e+09Hz, -5.718300e+01, -1.252160e+02)
+(  1.135000e+09Hz, -5.731000e+01, -1.257970e+02)
+(  1.156000e+09Hz, -5.738200e+01, -1.280400e+02)
+(  1.170000e+09Hz, -5.712700e+01, -1.312420e+02)
+(  1.191000e+09Hz, -5.721700e+01, -1.352070e+02)
+(  1.205000e+09Hz, -5.753500e+01, -1.354970e+02)
+(  1.226000e+09Hz, -5.745300e+01, -1.412130e+02)
+(  1.240000e+09Hz, -5.734000e+01, -1.423470e+02)
+(  1.261000e+09Hz, -5.727900e+01, -1.434110e+02)
+(  1.275000e+09Hz, -5.735200e+01, -1.451960e+02)
+(  1.296000e+09Hz, -5.753700e+01, -1.498130e+02)
+(  1.310000e+09Hz, -5.754100e+01, -1.504860e+02)
+(  1.331000e+09Hz, -5.777000e+01, -1.556070e+02)
+(  1.345000e+09Hz, -5.731300e+01, -1.559590e+02)
+(  1.366000e+09Hz, -5.734700e+01, -1.591080e+02)
+(  1.380000e+09Hz, -5.752600e+01, -1.617400e+02)
+(  1.401000e+09Hz, -5.752400e+01, -1.623840e+02)
+(  1.415000e+09Hz, -5.757300e+01, -1.648890e+02)
+(  1.436000e+09Hz, -5.768500e+01, -1.680130e+02)
+(  1.450000e+09Hz, -5.764300e+01, -1.709940e+02)
+(  1.471000e+09Hz, -5.758000e+01, -1.735750e+02)
+(  1.485000e+09Hz, -5.766000e+01, -1.752110e+02)
+(  1.506000e+09Hz, -5.740600e+01, -1.787900e+02)
+(  1.520000e+09Hz, -5.740700e+01,  1.788690e+02)
+(  1.541000e+09Hz, -5.763400e+01,  1.764310e+02)
+(  1.555000e+09Hz, -5.749000e+01,  1.745560e+02)
+(  1.576000e+09Hz, -5.753900e+01,  1.705460e+02)
+(  1.590000e+09Hz, -5.736200e+01,  1.695120e+02)
+(  1.611000e+09Hz, -5.735800e+01,  1.658200e+02)
+(  1.625000e+09Hz, -5.735100e+01,  1.649360e+02)
+(  1.646000e+09Hz, -5.743400e+01,  1.617610e+02)
+(  1.660000e+09Hz, -5.730800e+01,  1.601380e+02)
+(  1.681000e+09Hz, -5.739200e+01,  1.552570e+02)
+(  1.695000e+09Hz, -5.724300e+01,  1.531520e+02)
+(  1.716000e+09Hz, -5.725700e+01,  1.520040e+02)
+(  1.730000e+09Hz, -5.709900e+01,  1.493640e+02)
+(  1.751000e+09Hz, -5.717100e+01,  1.464360e+02)
+(  1.765000e+09Hz, -5.771200e+01,  1.412990e+02)
+(  1.786000e+09Hz, -5.735600e+01,  1.412310e+02)
+(  1.800000e+09Hz, -5.734300e+01,  1.393500e+02)
+(  1.821000e+09Hz, -5.758500e+01,  1.353310e+02)
+(  1.835000e+09Hz, -5.704100e+01,  1.331530e+02)
+(  1.856000e+09Hz, -5.715500e+01,  1.301340e+02)
+(  1.870000e+09Hz, -5.691400e+01,  1.287850e+02)
+(  1.891000e+09Hz, -5.688100e+01,  1.270660e+02)
+(  1.905000e+09Hz, -5.700500e+01,  1.253760e+02)
+(  1.926000e+09Hz, -5.677500e+01,  1.211490e+02)
+(  1.940000e+09Hz, -5.670400e+01,  1.183120e+02)
+(  1.961000e+09Hz, -5.666100e+01,  1.182720e+02)
+(  1.975000e+09Hz, -5.671700e+01,  1.134300e+02)
+(  1.996000e+09Hz, -5.679300e+01,  1.124030e+02)
+(  2.010000e+09Hz, -5.630700e+01,  1.124450e+02)
+(  2.031000e+09Hz, -5.648200e+01,  1.054690e+02)
+(  2.045000e+09Hz, -5.624600e+01,  1.057550e+02)
+(  2.066000e+09Hz, -5.625100e+01,  1.044370e+02)
+(  2.080000e+09Hz, -5.619800e+01,  9.875000e+01)
+(  2.101000e+09Hz, -5.594500e+01,  9.739000e+01)
+(  2.115000e+09Hz, -5.597100e+01,  9.465100e+01)
+(  2.136000e+09Hz, -5.637200e+01,  9.432700e+01)
+(  2.150000e+09Hz, -5.581300e+01,  9.011400e+01)
+(  2.171000e+09Hz, -5.593500e+01,  8.901700e+01)
+(  2.185000e+09Hz, -5.560100e+01,  8.691400e+01)
+(  2.206000e+09Hz, -5.559900e+01,  8.549400e+01)
+(  2.220000e+09Hz, -5.568200e+01,  8.148000e+01)
+(  2.241000e+09Hz, -5.525300e+01,  7.924300e+01)
+(  2.255000e+09Hz, -5.549600e+01,  7.737400e+01)
+(  2.276000e+09Hz, -5.525700e+01,  7.560900e+01)
+(  2.290000e+09Hz, -5.522400e+01,  7.505200e+01)
+(  2.311000e+09Hz, -5.518800e+01,  7.177100e+01)
+(  2.325000e+09Hz, -5.507400e+01,  6.798400e+01)
+(  2.346000e+09Hz, -5.499600e+01,  6.750400e+01)
+(  2.360000e+09Hz, -5.483700e+01,  6.384000e+01)
+(  2.381000e+09Hz, -5.497200e+01,  6.315200e+01)
+(  2.395000e+09Hz, -5.491600e+01,  6.230400e+01)
+(  2.416000e+09Hz, -5.533100e+01,  5.784300e+01)
+(  2.430000e+09Hz, -5.495700e+01,  5.571500e+01)
+(  2.451000e+09Hz, -5.460700e+01,  5.416000e+01)
+(  2.465000e+09Hz, -5.446500e+01,  5.049700e+01)
+(  2.486000e+09Hz, -5.485900e+01,  5.023600e+01)
+(  2.500000e+09Hz, -5.438500e+01,  4.832500e+01)
+(  2.521000e+09Hz, -5.441100e+01,  4.417200e+01)
+(  2.535000e+09Hz, -5.443000e+01,  4.276900e+01)
+(  2.556000e+09Hz, -5.428600e+01,  4.067400e+01)
+(  2.570000e+09Hz, -5.404800e+01,  3.946700e+01)
+(  2.591000e+09Hz, -5.412100e+01,  3.690400e+01)
+(  2.605000e+09Hz, -5.394900e+01,  3.608600e+01)
+(  2.626000e+09Hz, -5.390000e+01,  3.450600e+01)
+(  2.640000e+09Hz, -5.393700e+01,  3.065900e+01)
+(  2.661000e+09Hz, -5.395500e+01,  2.917000e+01)
+(  2.675000e+09Hz, -5.369100e+01,  2.810500e+01)
+(  2.696000e+09Hz, -5.368900e+01,  2.703300e+01)
+(  2.710000e+09Hz, -5.359500e+01,  2.382000e+01)
+(  2.731000e+09Hz, -5.343500e+01,  2.335500e+01)
+(  2.745000e+09Hz, -5.376900e+01,  2.083100e+01)
+(  2.766000e+09Hz, -5.344600e+01,  1.930600e+01)
+(  2.780000e+09Hz, -5.345700e+01,  1.704000e+01)
+(  2.801000e+09Hz, -5.330800e+01,  1.440300e+01)
+(  2.815000e+09Hz, -5.311200e+01,  1.316400e+01)
+(  2.836000e+09Hz, -5.321400e+01,  1.167100e+01)
+(  2.850000e+09Hz, -5.318900e+01,  9.553000e+00)
+(  2.871000e+09Hz, -5.307900e+01,  6.314000e+00)
+(  2.885000e+09Hz, -5.312300e+01,  5.982000e+00)
+(  2.906000e+09Hz, -5.289100e+01,  2.716000e+00)
+(  2.920000e+09Hz, -5.300500e+01,  2.912000e+00)
+(  2.941000e+09Hz, -5.264500e+01,  1.195000e+00)
+(  2.955000e+09Hz, -5.269200e+01,  2.090000e-01)
+(  2.976000e+09Hz, -5.253600e+01, -3.755000e+00)
+(  2.990000e+09Hz, -5.257500e+01, -5.390000e+00)
+(  3.011000e+09Hz, -5.247900e+01, -6.867000e+00)
+(  3.025000e+09Hz, -5.236900e+01, -8.406000e+00)
+(  3.046000e+09Hz, -5.246500e+01, -1.086400e+01)
+(  3.060000e+09Hz, -5.232600e+01, -1.134600e+01)
+(  3.081000e+09Hz, -5.224900e+01, -1.446800e+01)
+(  3.095000e+09Hz, -5.224700e+01, -1.590200e+01)
+(  3.116000e+09Hz, -5.226000e+01, -1.749900e+01)
+(  3.130000e+09Hz, -5.225200e+01, -2.003500e+01)
+(  3.151000e+09Hz, -5.202400e+01, -2.232500e+01)
+(  3.165000e+09Hz, -5.202900e+01, -2.420400e+01)
+(  3.186000e+09Hz, -5.196900e+01, -2.661700e+01)
+(  3.200000e+09Hz, -5.185900e+01, -2.750800e+01)
+(  3.221000e+09Hz, -5.175300e+01, -2.962300e+01)
+(  3.235000e+09Hz, -5.172200e+01, -3.118700e+01)
+(  3.256000e+09Hz, -5.161000e+01, -3.237600e+01)
+(  3.270000e+09Hz, -5.171700e+01, -3.420000e+01)
+(  3.291000e+09Hz, -5.174300e+01, -3.629000e+01)
+(  3.305000e+09Hz, -5.164100e+01, -3.762000e+01)
+(  3.326000e+09Hz, -5.172800e+01, -3.948200e+01)
+(  3.340000e+09Hz, -5.185800e+01, -4.069100e+01)
+(  3.361000e+09Hz, -5.183200e+01, -4.216000e+01)
+(  3.375000e+09Hz, -5.163800e+01, -4.334800e+01)
+(  3.396000e+09Hz, -5.138500e+01, -4.597200e+01)
+(  3.410000e+09Hz, -5.120500e+01, -4.749400e+01)
+(  3.431000e+09Hz, -5.116200e+01, -5.011500e+01)
+(  3.445000e+09Hz, -5.114900e+01, -5.129700e+01)
+(  3.466000e+09Hz, -5.097400e+01, -5.371800e+01)
+(  3.480000e+09Hz, -5.097000e+01, -5.475100e+01)
+(  3.501000e+09Hz, -5.097000e+01, -5.708800e+01)
+(  3.515000e+09Hz, -5.101200e+01, -5.842500e+01)
+(  3.536000e+09Hz, -5.103800e+01, -6.015100e+01)
+(  3.550000e+09Hz, -5.098200e+01, -6.233000e+01)
+(  3.571000e+09Hz, -5.108800e+01, -6.273800e+01)
+(  3.585000e+09Hz, -5.101100e+01, -6.488900e+01)
+(  3.606000e+09Hz, -5.092000e+01, -6.749300e+01)
+(  3.620000e+09Hz, -5.088700e+01, -6.847500e+01)
+(  3.641000e+09Hz, -5.082900e+01, -7.123500e+01)
+(  3.655000e+09Hz, -5.077300e+01, -7.286100e+01)
+(  3.676000e+09Hz, -5.074000e+01, -7.380800e+01)
+(  3.690000e+09Hz, -5.069600e+01, -7.507000e+01)
+(  3.711000e+09Hz, -5.064100e+01, -7.827500e+01)
+(  3.725000e+09Hz, -5.051600e+01, -7.915500e+01)
+(  3.746000e+09Hz, -5.037000e+01, -8.085400e+01)
+(  3.760000e+09Hz, -5.034100e+01, -8.245600e+01)
+(  3.781000e+09Hz, -5.026400e+01, -8.359100e+01)
+(  3.795000e+09Hz, -5.022600e+01, -8.505400e+01)
+(  3.816000e+09Hz, -5.021900e+01, -8.772800e+01)
+(  3.830000e+09Hz, -5.030100e+01, -8.989600e+01)
+(  3.851000e+09Hz, -5.016900e+01, -9.115600e+01)
+(  3.865000e+09Hz, -5.014400e+01, -9.319100e+01)
+(  3.886000e+09Hz, -5.015100e+01, -9.513800e+01)
+(  3.900000e+09Hz, -4.999700e+01, -9.679200e+01)
+(  3.921000e+09Hz, -5.001700e+01, -9.740800e+01)
+(  3.935000e+09Hz, -5.010300e+01, -9.930100e+01)
+(  3.956000e+09Hz, -4.997300e+01, -1.019210e+02)
+(  3.970000e+09Hz, -4.988600e+01, -1.029330e+02)
+(  3.991000e+09Hz, -4.972500e+01, -1.064760e+02)
+(  4.005000e+09Hz, -4.964500e+01, -1.070990e+02)
+(  4.026000e+09Hz, -4.954100e+01, -1.089220e+02)
+(  4.040000e+09Hz, -4.958700e+01, -1.093660e+02)
+(  4.061000e+09Hz, -4.950300e+01, -1.119150e+02)
+(  4.075000e+09Hz, -4.953700e+01, -1.129580e+02)
+(  4.096000e+09Hz, -4.938400e+01, -1.158600e+02)
+(  4.110000e+09Hz, -4.953600e+01, -1.159560e+02)
+(  4.131000e+09Hz, -4.936400e+01, -1.190820e+02)
+(  4.145000e+09Hz, -4.936600e+01, -1.199770e+02)
+(  4.166000e+09Hz, -4.945000e+01, -1.226620e+02)
+(  4.180000e+09Hz, -4.938200e+01, -1.236060e+02)
+(  4.201000e+09Hz, -4.926900e+01, -1.256870e+02)
+(  4.215000e+09Hz, -4.936800e+01, -1.284570e+02)
+(  4.236000e+09Hz, -4.928900e+01, -1.304020e+02)
+(  4.250000e+09Hz, -4.910000e+01, -1.312010e+02)
+(  4.271000e+09Hz, -4.907700e+01, -1.327390e+02)
+(  4.285000e+09Hz, -4.899900e+01, -1.337370e+02)
+(  4.306000e+09Hz, -4.899800e+01, -1.349810e+02)
+(  4.320000e+09Hz, -4.902800e+01, -1.371070e+02)
+(  4.341000e+09Hz, -4.906600e+01, -1.397220e+02)
+(  4.355000e+09Hz, -4.886500e+01, -1.410360e+02)
+(  4.376000e+09Hz, -4.881900e+01, -1.437590e+02)
+(  4.390000e+09Hz, -4.888100e+01, -1.441260e+02)
+(  4.411000e+09Hz, -4.881700e+01, -1.466860e+02)
+(  4.425000e+09Hz, -4.874900e+01, -1.472310e+02)
+(  4.446000e+09Hz, -4.870200e+01, -1.497790e+02)
+(  4.460000e+09Hz, -4.868200e+01, -1.511950e+02)
+(  4.481000e+09Hz, -4.855700e+01, -1.539450e+02)
+(  4.495000e+09Hz, -4.856500e+01, -1.550450e+02)
+(  4.516000e+09Hz, -4.836400e+01, -1.570200e+02)
+(  4.530000e+09Hz, -4.840500e+01, -1.572710e+02)
+(  4.551000e+09Hz, -4.847300e+01, -1.590800e+02)
+(  4.565000e+09Hz, -4.849200e+01, -1.600110e+02)
+(  4.586000e+09Hz, -4.853000e+01, -1.621300e+02)
+(  4.600000e+09Hz, -4.839200e+01, -1.642400e+02)
+(  4.621000e+09Hz, -4.834300e+01, -1.666100e+02)
+(  4.635000e+09Hz, -4.825700e+01, -1.667590e+02)
+(  4.656000e+09Hz, -4.838600e+01, -1.691950e+02)
+(  4.670000e+09Hz, -4.817400e+01, -1.705410e+02)
+(  4.691000e+09Hz, -4.827200e+01, -1.727220e+02)
+(  4.705000e+09Hz, -4.810900e+01, -1.752840e+02)
+(  4.726000e+09Hz, -4.802800e+01, -1.775720e+02)
+(  4.740000e+09Hz, -4.796100e+01, -1.786790e+02)
+(  4.761000e+09Hz, -4.789500e+01, -1.793650e+02)
+(  4.775000e+09Hz, -4.786500e+01,  1.796030e+02)
+(  4.796000e+09Hz, -4.783500e+01,  1.779180e+02)
+(  4.810000e+09Hz, -4.788300e+01,  1.764470e+02)
+(  4.831000e+09Hz, -4.787500e+01,  1.737820e+02)
+(  4.845000e+09Hz, -4.786800e+01,  1.724570e+02)
+(  4.866000e+09Hz, -4.775300e+01,  1.695840e+02)
+(  4.880000e+09Hz, -4.770700e+01,  1.682770e+02)
+(  4.901000e+09Hz, -4.769200e+01,  1.673880e+02)
+(  4.915000e+09Hz, -4.768700e+01,  1.670060e+02)
+(  4.936000e+09Hz, -4.771000e+01,  1.638970e+02)
+(  4.950000e+09Hz, -4.770300e+01,  1.624870e+02)
+(  4.971000e+09Hz, -4.761200e+01,  1.609660e+02)
+(  4.985000e+09Hz, -4.759000e+01,  1.599130e+02)
+(  5.006000e+09Hz, -4.746600e+01,  1.584270e+02)
+(  5.020000e+09Hz, -4.744100e+01,  1.574990e+02)
+(  5.041000e+09Hz, -4.733100e+01,  1.560450e+02)
+(  5.055000e+09Hz, -4.738000e+01,  1.542010e+02)
+(  5.076000e+09Hz, -4.739000e+01,  1.515950e+02)
+(  5.090000e+09Hz, -4.730400e+01,  1.503470e+02)
+(  5.111000e+09Hz, -4.731400e+01,  1.481160e+02)
+(  5.125000e+09Hz, -4.733200e+01,  1.477340e+02)
+(  5.146000e+09Hz, -4.728400e+01,  1.457390e+02)
+(  5.160000e+09Hz, -4.728000e+01,  1.443650e+02)
+(  5.181000e+09Hz, -4.718100e+01,  1.425170e+02)
+(  5.195000e+09Hz, -4.721100e+01,  1.403070e+02)
+(  5.216000e+09Hz, -4.711900e+01,  1.381560e+02)
+(  5.230000e+09Hz, -4.701300e+01,  1.367530e+02)
+(  5.251000e+09Hz, -4.691700e+01,  1.348270e+02)
+(  5.265000e+09Hz, -4.690800e+01,  1.345130e+02)
+(  5.286000e+09Hz, -4.695700e+01,  1.335030e+02)
+(  5.300000e+09Hz, -4.696000e+01,  1.322240e+02)
+(  5.321000e+09Hz, -4.689100e+01,  1.300300e+02)
+(  5.335000e+09Hz, -4.689100e+01,  1.286010e+02)
+(  5.356000e+09Hz, -4.671800e+01,  1.265310e+02)
+(  5.370000e+09Hz, -4.675200e+01,  1.252660e+02)
+(  5.391000e+09Hz, -4.678400e+01,  1.239050e+02)
+(  5.405000e+09Hz, -4.679700e+01,  1.223540e+02)
+(  5.426000e+09Hz, -4.676300e+01,  1.208430e+02)
+(  5.440000e+09Hz, -4.667400e+01,  1.186870e+02)
+(  5.461000e+09Hz, -4.662800e+01,  1.164600e+02)
+(  5.475000e+09Hz, -4.656900e+01,  1.146940e+02)
+(  5.496000e+09Hz, -4.649600e+01,  1.130290e+02)
+(  5.510000e+09Hz, -4.647400e+01,  1.123730e+02)
+(  5.531000e+09Hz, -4.652400e+01,  1.106280e+02)
+(  5.545000e+09Hz, -4.652300e+01,  1.091620e+02)
+(  5.566000e+09Hz, -4.648100e+01,  1.068210e+02)
+(  5.580000e+09Hz, -4.648000e+01,  1.059860e+02)
+(  5.601000e+09Hz, -4.637700e+01,  1.043060e+02)
+(  5.615000e+09Hz, -4.619800e+01,  1.034410e+02)
+(  5.636000e+09Hz, -4.623500e+01,  1.021470e+02)
+(  5.650000e+09Hz, -4.624800e+01,  1.014180e+02)
+(  5.671000e+09Hz, -4.629800e+01,  9.908500e+01)
+(  5.685000e+09Hz, -4.631800e+01,  9.752100e+01)
+(  5.706000e+09Hz, -4.623500e+01,  9.464100e+01)
+(  5.720000e+09Hz, -4.625400e+01,  9.360100e+01)
+(  5.741000e+09Hz, -4.628500e+01,  9.214100e+01)
+(  5.755000e+09Hz, -4.617900e+01,  9.137000e+01)
+(  5.776000e+09Hz, -4.622200e+01,  8.890400e+01)
+(  5.790000e+09Hz, -4.620300e+01,  8.772800e+01)
+(  5.811000e+09Hz, -4.626500e+01,  8.530900e+01)
+(  5.825000e+09Hz, -4.614900e+01,  8.391500e+01)
+(  5.846000e+09Hz, -4.605200e+01,  8.244200e+01)
+(  5.860000e+09Hz, -4.604500e+01,  8.125600e+01)
+(  5.881000e+09Hz, -4.600700e+01,  8.108000e+01)
+(  5.895000e+09Hz, -4.599500e+01,  8.016800e+01)
+(  5.916000e+09Hz, -4.605300e+01,  7.825800e+01)
+(  5.930000e+09Hz, -4.604100e+01,  7.671600e+01)
+(  5.951000e+09Hz, -4.599900e+01,  7.439900e+01)
+(  5.965000e+09Hz, -4.596200e+01,  7.321700e+01)
+(  5.986000e+09Hz, -4.591700e+01,  7.112300e+01)
+(  6.000000e+09Hz, -4.582400e+01,  6.954600e+01)
+(  6.021000e+09Hz, -4.587200e+01,  6.802400e+01)
+(  6.035000e+09Hz, -4.590200e+01,  6.648900e+01)
+(  6.056000e+09Hz, -4.584700e+01,  6.405700e+01)
+(  6.070000e+09Hz, -4.582700e+01,  6.290300e+01)
+(  6.091000e+09Hz, -4.574300e+01,  6.071200e+01)
+(  6.105000e+09Hz, -4.570900e+01,  5.985700e+01)
+(  6.126000e+09Hz, -4.569200e+01,  5.857600e+01)
+(  6.140000e+09Hz, -4.567300e+01,  5.782500e+01)
+(  6.161000e+09Hz, -4.574300e+01,  5.632800e+01)
+(  6.175000e+09Hz, -4.572900e+01,  5.484800e+01)
+(  6.196000e+09Hz, -4.575300e+01,  5.274000e+01)
+(  6.210000e+09Hz, -4.568200e+01,  5.166800e+01)
+(  6.231000e+09Hz, -4.567700e+01,  5.040200e+01)
+(  6.245000e+09Hz, -4.566400e+01,  4.971600e+01)
+(  6.266000e+09Hz, -4.567900e+01,  4.772200e+01)
+(  6.280000e+09Hz, -4.573500e+01,  4.641000e+01)
+(  6.301000e+09Hz, -4.571600e+01,  4.462100e+01)
+(  6.315000e+09Hz, -4.574600e+01,  4.322500e+01)
+(  6.336000e+09Hz, -4.562900e+01,  4.143500e+01)
+(  6.350000e+09Hz, -4.558700e+01,  4.013000e+01)
+(  6.371000e+09Hz, -4.565000e+01,  3.873000e+01)
+(  6.385000e+09Hz, -4.558800e+01,  3.778600e+01)
+(  6.406000e+09Hz, -4.562600e+01,  3.577700e+01)
+(  6.420000e+09Hz, -4.570100e+01,  3.404300e+01)
+(  6.441000e+09Hz, -4.554600e+01,  3.184300e+01)
+(  6.455000e+09Hz, -4.552500e+01,  3.063200e+01)
+(  6.476000e+09Hz, -4.540400e+01,  2.919100e+01)
+(  6.490000e+09Hz, -4.543800e+01,  2.855800e+01)
+(  6.511000e+09Hz, -4.546200e+01,  2.673600e+01)
+(  6.525000e+09Hz, -4.548200e+01,  2.543900e+01)
+(  6.546000e+09Hz, -4.549400e+01,  2.391500e+01)
+(  6.560000e+09Hz, -4.556700e+01,  2.236300e+01)
+(  6.581000e+09Hz, -4.551400e+01,  2.036300e+01)
+(  6.595000e+09Hz, -4.545900e+01,  1.946200e+01)
+(  6.616000e+09Hz, -4.549100e+01,  1.798200e+01)
+(  6.630000e+09Hz, -4.541300e+01,  1.709800e+01)
+(  6.651000e+09Hz, -4.545600e+01,  1.518900e+01)
+(  6.665000e+09Hz, -4.542300e+01,  1.365800e+01)
+(  6.686000e+09Hz, -4.541800e+01,  1.120300e+01)
+(  6.700000e+09Hz, -4.533800e+01,  1.000400e+01)
+(  6.721000e+09Hz, -4.528700e+01,  8.654000e+00)
+(  6.735000e+09Hz, -4.523600e+01,  7.753000e+00)
+(  6.756000e+09Hz, -4.537400e+01,  6.404000e+00)
+(  6.770000e+09Hz, -4.542000e+01,  5.298000e+00)
+(  6.791000e+09Hz, -4.535200e+01,  3.385000e+00)
+(  6.805000e+09Hz, -4.539300e+01,  2.004000e+00)
+(  6.826000e+09Hz, -4.527500e+01,  1.800000e-01)
+(  6.840000e+09Hz, -4.524800e+01, -1.198000e+00)
+(  6.861000e+09Hz, -4.523400e+01, -2.696000e+00)
+(  6.875000e+09Hz, -4.526500e+01, -3.759000e+00)
+(  6.896000e+09Hz, -4.528700e+01, -5.768000e+00)
+(  6.910000e+09Hz, -4.528800e+01, -7.234000e+00)
+(  6.931000e+09Hz, -4.526000e+01, -9.569000e+00)
+(  6.945000e+09Hz, -4.522600e+01, -1.021400e+01)
+(  6.966000e+09Hz, -4.523300e+01, -1.213800e+01)
+(  6.980000e+09Hz, -4.521400e+01, -1.309800e+01)
+(  7.001000e+09Hz, -4.524400e+01, -1.457000e+01)
* S12 FREQ DB
 G0102 3 100 FREQ {V(200,3)}= DB
+(  5.000000e+07Hz, -7.451700e+01, -2.620000e-01)
+(  6.400000e+07Hz, -7.463600e+01,  4.320000e-01)
+(  7.800000e+07Hz, -7.440800e+01,  7.240000e-01)
+(  9.200000e+07Hz, -7.436700e+01,  1.028000e+00)
+(  1.060000e+08Hz, -7.439300e+01,  1.738000e+00)
+(  1.200000e+08Hz, -7.425600e+01,  1.306000e+00)
+(  1.340000e+08Hz, -7.431600e+01,  2.203000e+00)
+(  1.480000e+08Hz, -7.424600e+01,  1.796000e+00)
+(  1.620000e+08Hz, -7.428200e+01,  2.128000e+00)
+(  1.760000e+08Hz, -7.417200e+01,  2.606000e+00)
+(  1.900000e+08Hz, -7.412200e+01,  2.412000e+00)
+(  2.040000e+08Hz, -7.406700e+01,  2.455000e+00)
+(  2.180000e+08Hz, -7.410300e+01,  2.809000e+00)
+(  2.320000e+08Hz, -7.403300e+01,  2.996000e+00)
+(  2.460000e+08Hz, -7.386800e+01,  3.203000e+00)
+(  2.600000e+08Hz, -7.396300e+01,  3.204000e+00)
+(  2.810000e+08Hz, -7.378700e+01,  3.689000e+00)
+(  2.950000e+08Hz, -7.376300e+01,  3.471000e+00)
+(  3.160000e+08Hz, -7.363900e+01,  3.526000e+00)
+(  3.300000e+08Hz, -7.353400e+01,  3.957000e+00)
+(  3.510000e+08Hz, -7.341200e+01,  4.038000e+00)
+(  3.650000e+08Hz, -7.335700e+01,  4.258000e+00)
+(  3.860000e+08Hz, -7.325400e+01,  4.214000e+00)
+(  4.000000e+08Hz, -7.316300e+01,  4.102000e+00)
+(  4.210000e+08Hz, -7.294000e+01,  4.448000e+00)
+(  4.350000e+08Hz, -7.283800e+01,  4.338000e+00)
+(  4.560000e+08Hz, -7.272200e+01,  3.966000e+00)
+(  4.700000e+08Hz, -7.263800e+01,  3.823000e+00)
+(  4.910000e+08Hz, -7.243600e+01,  3.868000e+00)
+(  5.050000e+08Hz, -7.236800e+01,  3.703000e+00)
+(  5.260000e+08Hz, -7.215100e+01,  3.476000e+00)
+(  5.400000e+08Hz, -7.201500e+01,  3.034000e+00)
+(  5.610000e+08Hz, -7.187700e+01,  2.686000e+00)
+(  5.750000e+08Hz, -7.174500e+01,  2.637000e+00)
+(  5.960000e+08Hz, -7.158800e+01,  2.030000e+00)
+(  6.100000e+08Hz, -7.147300e+01,  1.689000e+00)
+(  6.310000e+08Hz, -7.131800e+01,  1.149000e+00)
+(  6.450000e+08Hz, -7.120900e+01,  6.800000e-01)
+(  6.660000e+08Hz, -7.100500e+01,  3.100000e-02)
+(  6.800000e+08Hz, -7.084600e+01, -1.540000e-01)
+(  7.010000e+08Hz, -7.072000e+01, -9.330000e-01)
+(  7.150000e+08Hz, -7.056800e+01, -1.719000e+00)
+(  7.360000e+08Hz, -7.041100e+01, -2.213000e+00)
+(  7.500000e+08Hz, -7.029500e+01, -2.751000e+00)
+(  7.710000e+08Hz, -7.011000e+01, -3.352000e+00)
+(  7.850000e+08Hz, -7.001100e+01, -4.060000e+00)
+(  8.060000e+08Hz, -6.984900e+01, -4.859000e+00)
+(  8.200000e+08Hz, -6.973200e+01, -5.457000e+00)
+(  8.410000e+08Hz, -6.953800e+01, -6.414000e+00)
+(  8.550000e+08Hz, -6.945400e+01, -7.079000e+00)
+(  8.760000e+08Hz, -6.928000e+01, -7.894000e+00)
+(  8.900000e+08Hz, -6.916700e+01, -8.768000e+00)
+(  9.110000e+08Hz, -6.901000e+01, -9.469000e+00)
+(  9.250000e+08Hz, -6.889200e+01, -1.022800e+01)
+(  9.460000e+08Hz, -6.874000e+01, -1.124100e+01)
+(  9.600000e+08Hz, -6.862500e+01, -1.198600e+01)
+(  9.810000e+08Hz, -6.844900e+01, -1.305800e+01)
+(  9.950000e+08Hz, -6.835300e+01, -1.390400e+01)
+(  1.016000e+09Hz, -6.821000e+01, -1.490500e+01)
+(  1.030000e+09Hz, -6.809800e+01, -1.549300e+01)
+(  1.051000e+09Hz, -6.794800e+01, -1.662400e+01)
+(  1.065000e+09Hz, -6.783100e+01, -1.756700e+01)
+(  1.086000e+09Hz, -6.770000e+01, -1.880400e+01)
+(  1.100000e+09Hz, -6.760100e+01, -1.968400e+01)
+(  1.121000e+09Hz, -6.746300e+01, -2.081100e+01)
+(  1.135000e+09Hz, -6.737800e+01, -2.174800e+01)
+(  1.156000e+09Hz, -6.722100e+01, -2.305400e+01)
+(  1.170000e+09Hz, -6.711500e+01, -2.381200e+01)
+(  1.191000e+09Hz, -6.701500e+01, -2.507400e+01)
+(  1.205000e+09Hz, -6.689100e+01, -2.603700e+01)
+(  1.226000e+09Hz, -6.674400e+01, -2.724300e+01)
+(  1.240000e+09Hz, -6.665500e+01, -2.810100e+01)
+(  1.261000e+09Hz, -6.652800e+01, -2.936500e+01)
+(  1.275000e+09Hz, -6.645100e+01, -3.039900e+01)
+(  1.296000e+09Hz, -6.630400e+01, -3.180000e+01)
+(  1.310000e+09Hz, -6.622500e+01, -3.259800e+01)
+(  1.331000e+09Hz, -6.608200e+01, -3.386100e+01)
+(  1.345000e+09Hz, -6.600700e+01, -3.476500e+01)
+(  1.366000e+09Hz, -6.589900e+01, -3.629200e+01)
+(  1.380000e+09Hz, -6.581700e+01, -3.713200e+01)
+(  1.401000e+09Hz, -6.570500e+01, -3.857300e+01)
+(  1.415000e+09Hz, -6.561400e+01, -3.926500e+01)
+(  1.436000e+09Hz, -6.547300e+01, -4.084600e+01)
+(  1.450000e+09Hz, -6.541300e+01, -4.173500e+01)
+(  1.471000e+09Hz, -6.529300e+01, -4.309700e+01)
+(  1.485000e+09Hz, -6.522700e+01, -4.410700e+01)
+(  1.506000e+09Hz, -6.509700e+01, -4.551100e+01)
+(  1.520000e+09Hz, -6.501200e+01, -4.644600e+01)
+(  1.541000e+09Hz, -6.492500e+01, -4.800400e+01)
+(  1.555000e+09Hz, -6.484700e+01, -4.886100e+01)
+(  1.576000e+09Hz, -6.472700e+01, -5.036400e+01)
+(  1.590000e+09Hz, -6.463600e+01, -5.126700e+01)
+(  1.611000e+09Hz, -6.455900e+01, -5.277800e+01)
+(  1.625000e+09Hz, -6.447900e+01, -5.378100e+01)
+(  1.646000e+09Hz, -6.437000e+01, -5.526600e+01)
+(  1.660000e+09Hz, -6.427600e+01, -5.623100e+01)
+(  1.681000e+09Hz, -6.420300e+01, -5.779500e+01)
+(  1.695000e+09Hz, -6.413600e+01, -5.880000e+01)
+(  1.716000e+09Hz, -6.404200e+01, -6.041900e+01)
+(  1.730000e+09Hz, -6.396100e+01, -6.130200e+01)
+(  1.751000e+09Hz, -6.385500e+01, -6.290400e+01)
+(  1.765000e+09Hz, -6.376900e+01, -6.370700e+01)
+(  1.786000e+09Hz, -6.368500e+01, -6.534500e+01)
+(  1.800000e+09Hz, -6.365100e+01, -6.613200e+01)
+(  1.821000e+09Hz, -6.356300e+01, -6.782200e+01)
+(  1.835000e+09Hz, -6.349600e+01, -6.864000e+01)
+(  1.856000e+09Hz, -6.339800e+01, -7.017700e+01)
+(  1.870000e+09Hz, -6.330300e+01, -7.114300e+01)
+(  1.891000e+09Hz, -6.326000e+01, -7.262900e+01)
+(  1.905000e+09Hz, -6.314000e+01, -7.365000e+01)
+(  1.926000e+09Hz, -6.306300e+01, -7.529500e+01)
+(  1.940000e+09Hz, -6.300300e+01, -7.614900e+01)
+(  1.961000e+09Hz, -6.290900e+01, -7.772500e+01)
+(  1.975000e+09Hz, -6.284500e+01, -7.870000e+01)
+(  1.996000e+09Hz, -6.277600e+01, -8.040800e+01)
+(  2.010000e+09Hz, -6.266400e+01, -8.142800e+01)
+(  2.031000e+09Hz, -6.260200e+01, -8.298300e+01)
+(  2.045000e+09Hz, -6.254400e+01, -8.398300e+01)
+(  2.066000e+09Hz, -6.246600e+01, -8.559100e+01)
+(  2.080000e+09Hz, -6.241600e+01, -8.654500e+01)
+(  2.101000e+09Hz, -6.234800e+01, -8.814300e+01)
+(  2.115000e+09Hz, -6.227200e+01, -8.879300e+01)
+(  2.136000e+09Hz, -6.219900e+01, -9.084900e+01)
+(  2.150000e+09Hz, -6.217700e+01, -9.159100e+01)
+(  2.171000e+09Hz, -6.204800e+01, -9.328600e+01)
+(  2.185000e+09Hz, -6.198600e+01, -9.426500e+01)
+(  2.206000e+09Hz, -6.190900e+01, -9.591700e+01)
+(  2.220000e+09Hz, -6.186900e+01, -9.701600e+01)
+(  2.241000e+09Hz, -6.180000e+01, -9.839000e+01)
+(  2.255000e+09Hz, -6.173600e+01, -9.954900e+01)
+(  2.276000e+09Hz, -6.164500e+01, -1.013030e+02)
+(  2.290000e+09Hz, -6.158900e+01, -1.022570e+02)
+(  2.311000e+09Hz, -6.153100e+01, -1.038620e+02)
+(  2.325000e+09Hz, -6.151700e+01, -1.047340e+02)
+(  2.346000e+09Hz, -6.141600e+01, -1.065430e+02)
+(  2.360000e+09Hz, -6.140100e+01, -1.074290e+02)
+(  2.381000e+09Hz, -6.132100e+01, -1.090090e+02)
+(  2.395000e+09Hz, -6.128600e+01, -1.099580e+02)
+(  2.416000e+09Hz, -6.117800e+01, -1.116980e+02)
+(  2.430000e+09Hz, -6.113800e+01, -1.127020e+02)
+(  2.451000e+09Hz, -6.103100e+01, -1.144660e+02)
+(  2.465000e+09Hz, -6.098000e+01, -1.153750e+02)
+(  2.486000e+09Hz, -6.090600e+01, -1.170890e+02)
+(  2.500000e+09Hz, -6.089400e+01, -1.181530e+02)
+(  2.521000e+09Hz, -6.082200e+01, -1.198660e+02)
+(  2.535000e+09Hz, -6.081000e+01, -1.207950e+02)
+(  2.556000e+09Hz, -6.070800e+01, -1.223980e+02)
+(  2.570000e+09Hz, -6.068400e+01, -1.236120e+02)
+(  2.591000e+09Hz, -6.063200e+01, -1.250800e+02)
+(  2.605000e+09Hz, -6.061600e+01, -1.262400e+02)
+(  2.626000e+09Hz, -6.050500e+01, -1.279300e+02)
+(  2.640000e+09Hz, -6.049400e+01, -1.288320e+02)
+(  2.661000e+09Hz, -6.041500e+01, -1.303880e+02)
+(  2.675000e+09Hz, -6.039300e+01, -1.316150e+02)
+(  2.696000e+09Hz, -6.030100e+01, -1.331350e+02)
+(  2.710000e+09Hz, -6.027300e+01, -1.342050e+02)
+(  2.731000e+09Hz, -6.018400e+01, -1.360170e+02)
+(  2.745000e+09Hz, -6.019100e+01, -1.369330e+02)
+(  2.766000e+09Hz, -6.007800e+01, -1.384350e+02)
+(  2.780000e+09Hz, -6.008200e+01, -1.396790e+02)
+(  2.801000e+09Hz, -6.000800e+01, -1.411380e+02)
+(  2.815000e+09Hz, -5.995100e+01, -1.424480e+02)
+(  2.836000e+09Hz, -5.993100e+01, -1.439780e+02)
+(  2.850000e+09Hz, -5.988400e+01, -1.449410e+02)
+(  2.871000e+09Hz, -5.978500e+01, -1.464740e+02)
+(  2.885000e+09Hz, -5.975400e+01, -1.476980e+02)
+(  2.906000e+09Hz, -5.969200e+01, -1.493010e+02)
+(  2.920000e+09Hz, -5.961900e+01, -1.504370e+02)
+(  2.941000e+09Hz, -5.958500e+01, -1.520420e+02)
+(  2.955000e+09Hz, -5.953600e+01, -1.531250e+02)
+(  2.976000e+09Hz, -5.947500e+01, -1.549190e+02)
+(  2.990000e+09Hz, -5.946100e+01, -1.560650e+02)
+(  3.011000e+09Hz, -5.937700e+01, -1.575120e+02)
+(  3.025000e+09Hz, -5.936200e+01, -1.585930e+02)
+(  3.046000e+09Hz, -5.930500e+01, -1.603610e+02)
+(  3.060000e+09Hz, -5.926100e+01, -1.612940e+02)
+(  3.081000e+09Hz, -5.919700e+01, -1.631270e+02)
+(  3.095000e+09Hz, -5.916400e+01, -1.642450e+02)
+(  3.116000e+09Hz, -5.911600e+01, -1.659120e+02)
+(  3.130000e+09Hz, -5.910000e+01, -1.668930e+02)
+(  3.151000e+09Hz, -5.906500e+01, -1.686800e+02)
+(  3.165000e+09Hz, -5.904200e+01, -1.697760e+02)
+(  3.186000e+09Hz, -5.895800e+01, -1.713610e+02)
+(  3.200000e+09Hz, -5.894100e+01, -1.724060e+02)