Version 4
SHEET 1 1200 400
WIRE 0 0 0 64
WIRE 0 144 0 208
WIRE 0 0 64 0
WIRE 128 0 208 0
WIRE 208 0 208 64
WIRE 208 128 208 208
WIRE 208 0 416 0
WIRE 416 0 416 64
WIRE 416 144 416 208
WIRE 416 0 480 0
WIRE 544 0 624 0
WIRE 624 0 624 64
WIRE 624 128 624 208
WIRE 624 0 832 0
WIRE 832 0 832 64
WIRE 832 144 832 208
WIRE 832 0 896 0
WIRE 960 0 1040 0
WIRE 1040 0 1040 64
WIRE 1040 128 1040 208
WIRE 1040 0 1248 0
WIRE 1248 0 1248 64
WIRE 1248 144 1248 208
WIRE 1248 0 1312 0
WIRE 1376 0 1456 0
WIRE 1456 0 1456 64
WIRE 1456 128 1456 208
WIRE 1456 0 1664 0
WIRE 1664 0 1664 64
WIRE 1664 144 1664 208
WIRE 1664 0 1728 0
WIRE 1792 0 1872 0
WIRE 1872 0 1872 64
WIRE 1872 128 1872 208
WIRE 1872 0 2080 0
WIRE 2080 0 2080 64
WIRE 2080 144 2080 208
WIRE 2080 0 2144 0
WIRE 2208 0 2288 0
WIRE 2288 0 2288 64
WIRE 2288 144 2288 208
FLAG 0 208 0
FLAG 208 208 0
FLAG 416 208 0
FLAG 624 208 0
FLAG 832 208 0
FLAG 1040 208 0
FLAG 1248 208 0
FLAG 1456 208 0
FLAG 1664 208 0
FLAG 1872 208 0
FLAG 2080 208 0
FLAG 2288 208 0
SYMBOL voltage 0 48 R0
WINDOW 123 40 48 Left 2
WINDOW 39 39 77 Left 2
SYMATTR InstName V1
SYMATTR Value ""
SYMATTR Value2 AC 1 0
SYMATTR SpiceLine Rser=50.00
SYMBOL cap 64 16 R270
SYMATTR InstName C1
SYMATTR Value 3.055p
WINDOW 0 32 32 VTop 2
WINDOW 3 0 32 VBottom 2
SYMBOL cap 192 64 R0
SYMATTR InstName C2
SYMATTR Value 22.13p
SYMBOL ind 400 48 R0
SYMATTR InstName L2
SYMATTR Value 100.0n
SYMBOL cap 480 16 R270
SYMATTR InstName C3
SYMATTR Value 170.4f
WINDOW 0 32 32 VTop 2
WINDOW 3 0 32 VBottom 2
SYMBOL cap 608 64 R0
SYMATTR InstName C4
SYMATTR Value 25.08p
SYMBOL ind 816 48 R0
SYMATTR InstName L4
SYMATTR Value 100.0n
SYMBOL cap 896 16 R270
SYMATTR InstName C5
SYMATTR Value 79.33f
WINDOW 0 32 32 VTop 2
WINDOW 3 0 32 VBottom 2
SYMBOL cap 1024 64 R0
SYMATTR InstName C6
SYMATTR Value 25.20p
SYMBOL ind 1232 48 R0
SYMATTR InstName L6
SYMATTR Value 100.0n
SYMBOL cap 1312 16 R270
SYMATTR InstName C7
SYMATTR Value 53.60f
WINDOW 0 32 32 VTop 2
WINDOW 3 0 32 VBottom 2
SYMBOL cap 1440 64 R0
SYMATTR InstName C8
SYMATTR Value 25.24p
SYMBOL ind 1648 48 R0
SYMATTR InstName L8
SYMATTR Value 100.0n
SYMBOL cap 1728 16 R270
SYMATTR InstName C9
SYMATTR Value 31.98f
WINDOW 0 32 32 VTop 2
WINDOW 3 0 32 VBottom 2
SYMBOL cap 1856 64 R0
SYMATTR InstName C10
SYMATTR Value 24.45p
SYMBOL ind 2064 48 R0
SYMATTR InstName L10
SYMATTR Value 100.0n
SYMBOL cap 2144 16 R270
SYMATTR InstName C11
SYMATTR Value 845.3f
WINDOW 0 32 32 VTop 2
WINDOW 3 0 32 VBottom 2
SYMBOL res 2272 48 R0
SYMATTR InstName RL
SYMATTR Value 50
TEXT 16 -288 Left 2 !.ac dec 1001 79.60Meg 125.6Meg
TEXT 16 -240 Left 2 !.net I(RL) V1
TEXT 480 -288 Left 2 ;5th Order Bessel Bandpass\nDirect-Coupled, Series Capacitor\nLower Cutoff Freq. = 99.9 MHz; Upper Cutoff Freq. = 100.1 MHz\n\n\nrf-tools.com | Aug 22 2024 01:08
