Version 4
SHEET 1 3548 644
WIRE 64 0 0 0
WIRE 208 0 128 0
WIRE 416 0 208 0
WIRE 480 0 416 0
WIRE 624 0 544 0
WIRE 832 0 624 0
WIRE 896 0 832 0
WIRE 1040 0 960 0
WIRE 1248 0 1040 0
WIRE 1312 0 1248 0
WIRE 1456 0 1376 0
WIRE 1664 0 1456 0
WIRE 1728 0 1664 0
WIRE 1904 0 1792 0
WIRE 2080 0 1904 0
WIRE 2144 0 2080 0
WIRE 2288 0 2208 0
WIRE 1904 32 1904 0
WIRE 0 64 0 0
WIRE 208 64 208 0
WIRE 416 64 416 0
WIRE 624 64 624 0
WIRE 832 64 832 0
WIRE 1040 64 1040 0
WIRE 1248 64 1248 0
WIRE 1456 64 1456 0
WIRE 1664 64 1664 0
WIRE 2080 64 2080 0
WIRE 2288 64 2288 0
WIRE 304 128 208 128
WIRE 720 128 624 128
WIRE 1136 128 1040 128
WIRE 1552 128 1456 128
WIRE 1904 128 1904 96
WIRE 2000 128 1904 128
WIRE 208 144 208 128
WIRE 304 144 304 128
WIRE 624 144 624 128
WIRE 720 144 720 128
WIRE 1040 144 1040 128
WIRE 1136 144 1136 128
WIRE 1456 144 1456 128
WIRE 1552 144 1552 128
WIRE 1904 144 1904 128
WIRE 2000 144 2000 128
WIRE 0 208 0 144
WIRE 416 208 416 144
WIRE 832 208 832 144
WIRE 1248 208 1248 144
WIRE 1664 208 1664 144
WIRE 2080 208 2080 144
WIRE 2288 208 2288 144
WIRE 304 272 304 224
WIRE 720 272 720 224
WIRE 1136 272 1136 224
WIRE 1552 272 1552 224
WIRE 2000 272 2000 224
WIRE 208 288 208 224
WIRE 624 288 624 224
WIRE 1040 288 1040 224
WIRE 1456 288 1456 224
WIRE 1904 288 1904 224
FLAG 0 208 0
FLAG 416 208 0
FLAG 832 208 0
FLAG 1248 208 0
FLAG 1664 208 0
FLAG 2080 208 0
FLAG 2288 208 0
FLAG 1904 288 0
FLAG 2000 272 0
FLAG 1552 272 0
FLAG 1136 272 0
FLAG 720 272 0
FLAG 304 272 0
FLAG 1456 288 0
FLAG 1040 288 0
FLAG 624 288 0
FLAG 208 288 0
SYMBOL voltage 0 48 R0
WINDOW 123 40 48 Left 2
WINDOW 39 39 77 Left 2
SYMATTR Value2 AC 1 0
SYMATTR SpiceLine Rser=50.00
SYMATTR InstName V1
SYMATTR Value ""
SYMBOL cap 64 16 R270
WINDOW 0 32 32 VTop 2
WINDOW 3 0 32 VBottom 2
SYMATTR InstName C1
SYMATTR Value {Ctest*0.1379}
SYMATTR SpiceLine Rser={Rser}
SYMBOL cap 192 64 R0
SYMATTR InstName C2
SYMATTR Value {Ctest}
SYMATTR SpiceLine Rser={Rser}
SYMBOL ind 400 48 R0
SYMATTR InstName L2
SYMATTR Value 100.0n
SYMBOL cap 480 16 R270
WINDOW 0 32 32 VTop 2
WINDOW 3 0 32 VBottom 2
SYMATTR InstName C3
SYMATTR Value {Ctest*0.0071}
SYMATTR SpiceLine Rser={Rser}
SYMBOL cap 608 64 R0
SYMATTR InstName C4
SYMATTR Value {Ctest*1.1338}
SYMATTR SpiceLine Rser={Rser}
SYMBOL ind 816 48 R0
SYMATTR InstName L4
SYMATTR Value 100.0n
SYMBOL cap 896 16 R270
WINDOW 0 32 32 VTop 2
WINDOW 3 0 32 VBottom 2
SYMATTR InstName C5
SYMATTR Value {Ctest*0.0034}
SYMATTR SpiceLine Rser={Rser}
SYMBOL cap 1024 64 R0
SYMATTR InstName C6
SYMATTR Value {Ctest * 1.1386}
SYMATTR SpiceLine Rser={Rser}
SYMBOL ind 1232 48 R0
SYMATTR InstName L6
SYMATTR Value 100.0n
SYMBOL cap 1312 16 R270
WINDOW 0 32 32 VTop 2
WINDOW 3 0 32 VBottom 2
SYMATTR InstName C7
SYMATTR Value {Ctest*0.0022}
SYMATTR SpiceLine Rser={Rser}
SYMBOL cap 1440 64 R0
SYMATTR InstName C8
SYMATTR Value {Ctest * 1.1407}
SYMATTR SpiceLine Rser={Rser}
SYMBOL ind 1648 48 R0
SYMATTR InstName L8
SYMATTR Value 100.0n
SYMBOL cap 1728 16 R270
WINDOW 0 32 32 VTop 2
WINDOW 3 0 32 VBottom 2
SYMATTR InstName C9
SYMATTR Value {Ctest*0.0013}
SYMATTR SpiceLine Rser={Rser}
SYMBOL ind 2064 48 R0
SYMATTR InstName L10
SYMATTR Value 100.0n
SYMBOL cap 2144 16 R270
WINDOW 0 32 32 VTop 2
WINDOW 3 0 32 VBottom 2
SYMATTR InstName C11
SYMATTR Value {Ctest*0.0382}
SYMATTR SpiceLine Rser={Rser}
SYMBOL res 2272 48 R0
SYMATTR InstName RL
SYMATTR Value 50
SYMBOL cap 1888 32 R0
SYMATTR InstName C10
SYMATTR Value {Ctest * 1.1048}
SYMATTR SpiceLine Rser={Rser}
SYMBOL voltage 2000 128 R0
WINDOW 123 0 0 Left 0
WINDOW 39 0 0 Left 0
SYMATTR InstName V2
SYMATTR Value {Vtest*1.1048}
SYMBOL voltage 1552 128 R0
WINDOW 123 0 0 Left 0
WINDOW 39 0 0 Left 0
SYMATTR InstName V3
SYMATTR Value {Vtest*1.1407}
SYMBOL voltage 1136 128 R0
WINDOW 123 0 0 Left 0
WINDOW 39 0 0 Left 0
SYMATTR InstName V4
SYMATTR Value {Vtest*1.1386}
SYMBOL voltage 720 128 R0
WINDOW 123 0 0 Left 0
WINDOW 39 0 0 Left 0
SYMATTR InstName V5
SYMATTR Value {Vtest*1.1338}
SYMBOL voltage 304 128 R0
WINDOW 123 0 0 Left 0
WINDOW 39 0 0 Left 0
SYMATTR InstName V6
SYMATTR Value {Vtest}
SYMBOL varactor_model 1904 64 R270
SYMATTR InstName U1
SYMBOL varactor_model 1456 64 R270
SYMATTR InstName U2
SYMBOL varactor_model 1040 64 R270
SYMATTR InstName U3
SYMBOL varactor_model 624 64 R270
SYMATTR InstName U4
SYMBOL varactor_model 208 64 R270
SYMATTR InstName U5
TEXT 16 -288 Left 2 !.ac dec 10000000 10Meg 300Meg
TEXT 16 -240 Left 2 !.net I(RL) V1
TEXT 480 -288 Left 2 ;5th Order Bessel Bandpass\nDirect-Coupled, Series Capacitor\nLower Cutoff Freq. = 107.9 MHz; Upper Cutoff Freq. = 108.1 MHz\n\n\nrf-tools.com | Aug 11 2024 21:13
TEXT 1608 -296 Left 2 !.param Ctest 18p
TEXT 1632 -224 Left 2 !.param Rser 0.1
TEXT 1616 -168 Left 2 !.MODEL SMV1130-079LF d CJ0=25.8p Vj=10 M=3.7  Rs=0.8
TEXT 2440 -224 Left 2 !.step param Vtest list 2.0 2.5 3.0 3.5 4.0 4.5 5.0
TEXT 2728 -48 Left 2 !.lib C:\\Users\\piyus\\knowledge\\EE\\fm_radio\\sims\\varactor_model.lib
