Version 4
SHEET 1 880 680
WIRE 576 -1168 304 -1168
WIRE 304 -1120 304 -1168
WIRE 576 -1040 576 -1168
WIRE 304 -992 304 -1040
WIRE 528 -960 416 -960
WIRE 416 -944 416 -960
WIRE 240 -848 176 -848
WIRE 176 -816 176 -848
WIRE 416 -816 416 -864
WIRE 240 -784 240 -848
WIRE 576 -768 576 -944
WIRE 576 -768 288 -768
WIRE 576 -704 576 -768
WIRE 240 -624 240 -688
WIRE 576 -496 576 -624
WIRE 240 -480 240 -544
WIRE 240 -480 112 -480
WIRE 240 -400 240 -480
WIRE 112 -352 112 -400
WIRE 112 -352 -176 -352
WIRE 224 -352 112 -352
WIRE 560 -352 320 -352
WIRE -176 -336 -176 -352
WIRE -176 -208 -176 -256
FLAG 576 -496 0
FLAG -176 -208 0
FLAG 304 -992 0
FLAG 560 -352 15V_OUT
FLAG 416 -816 0
FLAG 176 -816 0
SYMBOL res 224 -640 R0
SYMATTR InstName R1
SYMATTR Value 5k
SYMBOL voltage -176 -352 R0
WINDOW 123 0 0 Left 0
WINDOW 39 0 0 Left 0
SYMATTR InstName V1
SYMATTR Value 15V
SYMBOL pmos 320 -400 R90
SYMATTR InstName M3
SYMBOL res 96 -496 R0
SYMATTR InstName R2
SYMATTR Value 10k
SYMBOL res 560 -720 R0
SYMATTR InstName R3
SYMATTR Value 10k
SYMBOL voltage 304 -1136 R0
WINDOW 123 0 0 Left 0
WINDOW 39 0 0 Left 0
SYMATTR InstName V2
SYMATTR Value 5V
SYMBOL voltage 416 -960 R0
WINDOW 3 -270 54 Left 2
WINDOW 123 0 0 Left 0
WINDOW 39 0 0 Left 0
SYMATTR InstName V3
SYMATTR Value PWR_ENABLE_BAR
SYMBOL pmos 528 -1040 R0
SYMATTR InstName M1
SYMBOL nmos 288 -688 R180
SYMATTR InstName M4
