Version 4
SHEET 1 880 680
WIRE 128 16 16 16
WIRE 288 16 208 16
WIRE 288 64 288 16
WIRE 16 192 16 16
WIRE 144 192 16 192
WIRE 288 192 288 144
WIRE 288 192 208 192
WIRE 16 224 16 192
FLAG 16 224 0
SYMBOL cap 208 176 R90
WINDOW 0 0 32 VBottom 2
WINDOW 3 32 32 VTop 2
SYMATTR InstName C1
SYMATTR Value 1µ
SYMATTR SpiceLine IC=2
SYMBOL res 272 48 R0
SYMATTR InstName R1
SYMATTR Value 1k
SYMBOL voltage 112 16 R270
WINDOW 0 32 56 VTop 2
WINDOW 3 -32 56 VBottom 2
WINDOW 123 0 0 Left 0
WINDOW 39 0 0 Left 0
SYMATTR InstName V1
SYMATTR Value 5
TEXT 328 184 Left 2 !.ic V(C1)=2
TEXT 344 64 Left 2 !.tran 5m
