Version 4
SHEET 1 1172 680
WIRE 224 176 -32 176
WIRE 368 176 304 176
WIRE -32 192 -32 176
WIRE 368 304 368 176
WIRE -32 320 -32 272
WIRE -32 416 -32 400
WIRE 368 416 368 384
FLAG 368 416 0
FLAG -32 416 0
SYMBOL voltage -32 176 R0
WINDOW 123 24 124 Left 2
WINDOW 39 0 0 Left 0
SYMATTR Value2 AC 1 0
SYMATTR InstName V1
SYMATTR Value ""
SYMBOL res 352 288 R0
SYMATTR InstName R1
SYMATTR Value 1k
SYMBOL voltage -32 304 R0
WINDOW 123 0 0 Left 0
WINDOW 39 0 0 Left 0
SYMATTR InstName V2
SYMATTR Value 10
SYMBOL varactor_model 144 176 R180
SYMATTR InstName U1
TEXT -64 440 Left 2 !.ac dec 10000 1k 1G
TEXT 352 128 Left 2 !.lib C:\\Users\\piyus\\knowledge\\EE\\fm_radio\\sims\\varactor_model.lib
TEXT 472 -16 Left 2 !.step V2 list 10 12 14 16 18
