Version 4
SHEET 1 948 680
WIRE -592 64 -672 64
WIRE -432 64 -528 64
WIRE -336 64 -368 64
WIRE -672 128 -672 64
WIRE -336 144 -336 64
WIRE -672 272 -672 208
FLAG -672 272 0
FLAG -336 144 0
SYMBOL voltage -672 112 R0
WINDOW 3 -128 70 Left 2
WINDOW 123 -128 42 Left 2
WINDOW 39 0 0 Left 0
SYMATTR Value ""
SYMATTR Value2 AC 1 0
SYMATTR InstName V1
SYMBOL cap -528 48 R90
WINDOW 0 0 32 VBottom 2
WINDOW 3 32 32 VTop 2
SYMATTR InstName C1
SYMATTR Value 21.65p
SYMBOL cap -368 48 R90
WINDOW 0 0 32 VBottom 2
WINDOW 3 32 32 VTop 2
SYMATTR InstName C2
SYMATTR Value 34.64p
TEXT -144 -112 Left 2 !.step param Vtest list 0 1 2 3 4 5
TEXT -928 -56 Left 2 !.ac dec 10000000 10Meg 300Meg
TEXT 216 264 Left 2 !;.op dec 10000000 10Meg 300Meg
TEXT 536 -88 Left 2 !;.step param Ctest list 10p 20p 30p
TEXT -136 -8 Left 2 !.MODEL SMV1130-079LF d CJ0=25.8p Vj=10 M=3.7  Rs=0.8
TEXT -136 56 Left 2 !.lib C:\\Users\\piyus\\Projects\\public\\fm_radio\\sims\\varactor_model.lib
