Version 4
SHEET 1 1900 680
WIRE -1584 -32 -1648 -32
WIRE -1440 -32 -1520 -32
WIRE -1232 -32 -1440 -32
WIRE -1168 -32 -1232 -32
WIRE -1024 -32 -1104 -32
WIRE -816 -32 -1024 -32
WIRE -752 -32 -816 -32
WIRE -608 -32 -688 -32
WIRE -400 -32 -608 -32
WIRE -336 -32 -400 -32
WIRE -192 -32 -272 -32
WIRE 16 -32 -192 -32
WIRE 80 -32 16 -32
WIRE 256 -32 144 -32
WIRE 432 -32 256 -32
WIRE 496 -32 432 -32
WIRE 640 -32 560 -32
WIRE 256 0 256 -32
WIRE -1648 32 -1648 -32
WIRE -1440 32 -1440 -32
WIRE -1232 32 -1232 -32
WIRE -1024 32 -1024 -32
WIRE -816 32 -816 -32
WIRE -608 32 -608 -32
WIRE -400 32 -400 -32
WIRE -192 32 -192 -32
WIRE 16 32 16 -32
WIRE 432 32 432 -32
WIRE 640 32 640 -32
WIRE -1344 96 -1440 96
WIRE -928 96 -1024 96
WIRE -512 96 -608 96
WIRE -96 96 -192 96
WIRE 256 96 256 64
WIRE 352 96 256 96
WIRE -1440 112 -1440 96
WIRE -1344 112 -1344 96
WIRE -1024 112 -1024 96
WIRE -928 112 -928 96
WIRE -608 112 -608 96
WIRE -512 112 -512 96
WIRE -192 112 -192 96
WIRE -96 112 -96 96
WIRE 256 112 256 96
WIRE 352 112 352 96
WIRE -1648 176 -1648 112
WIRE -1232 176 -1232 112
WIRE -816 176 -816 112
WIRE -400 176 -400 112
WIRE 16 176 16 112
WIRE 432 176 432 112
WIRE 640 176 640 112
WIRE -1344 240 -1344 192
WIRE -928 240 -928 192
WIRE -512 240 -512 192
WIRE -96 240 -96 192
WIRE 352 240 352 192
WIRE -1440 256 -1440 176
WIRE -1024 256 -1024 176
WIRE -608 256 -608 176
WIRE -192 256 -192 176
WIRE 256 256 256 176
FLAG -1648 176 0
FLAG -1232 176 0
FLAG -816 176 0
FLAG -400 176 0
FLAG 16 176 0
FLAG 432 176 0
FLAG 640 176 0
FLAG 256 256 0
FLAG 352 240 0
FLAG -96 240 0
FLAG -512 240 0
FLAG -928 240 0
FLAG -1344 240 0
FLAG -192 256 0
FLAG -608 256 0
FLAG -1024 256 0
FLAG -1440 256 0
SYMBOL voltage -1648 16 R0
WINDOW 123 40 48 Left 2
WINDOW 39 39 77 Left 2
SYMATTR Value2 AC 1 0
SYMATTR SpiceLine Rser=50.00
SYMATTR InstName V1
SYMATTR Value ""
SYMBOL cap -1584 -16 R270
WINDOW 0 32 32 VTop 2
WINDOW 3 0 32 VBottom 2
SYMATTR InstName C1
SYMATTR Value {Ctest*0.1379}
SYMATTR SpiceLine Rser={Rser}
SYMBOL cap -1456 32 R0
SYMATTR InstName C2
SYMATTR Value {Ctest}
SYMATTR SpiceLine Rser={Rser}
SYMBOL ind -1248 16 R0
SYMATTR InstName L1
SYMATTR Value 100.0n
SYMBOL cap -1168 -16 R270
WINDOW 0 32 32 VTop 2
WINDOW 3 0 32 VBottom 2
SYMATTR InstName C3
SYMATTR Value {Ctest*0.0071}
SYMATTR SpiceLine Rser={Rser}
SYMBOL cap -1040 32 R0
SYMATTR InstName C4
SYMATTR Value {Ctest*1.1338}
SYMATTR SpiceLine Rser={Rser}
SYMBOL ind -832 16 R0
SYMATTR InstName L2
SYMATTR Value 100.0n
SYMBOL cap -752 -16 R270
WINDOW 0 32 32 VTop 2
WINDOW 3 0 32 VBottom 2
SYMATTR InstName C5
SYMATTR Value {Ctest*0.0034}
SYMATTR SpiceLine Rser={Rser}
SYMBOL cap -624 32 R0
SYMATTR InstName C6
SYMATTR Value {Ctest * 1.1386}
SYMATTR SpiceLine Rser={Rser}
SYMBOL ind -416 16 R0
SYMATTR InstName L3
SYMATTR Value 100.0n
SYMBOL cap -336 -16 R270
WINDOW 0 32 32 VTop 2
WINDOW 3 0 32 VBottom 2
SYMATTR InstName C7
SYMATTR Value {Ctest*0.0022}
SYMATTR SpiceLine Rser={Rser}
SYMBOL cap -208 32 R0
SYMATTR InstName C8
SYMATTR Value {Ctest * 1.1407}
SYMATTR SpiceLine Rser={Rser}
SYMBOL ind 0 16 R0
SYMATTR InstName L4
SYMATTR Value 100.0n
SYMBOL cap 80 -16 R270
WINDOW 0 32 32 VTop 2
WINDOW 3 0 32 VBottom 2
SYMATTR InstName C9
SYMATTR Value {Ctest*0.0013}
SYMATTR SpiceLine Rser={Rser}
SYMBOL ind 416 16 R0
SYMATTR InstName L5
SYMATTR Value 100.0n
SYMBOL cap 496 -16 R270
WINDOW 0 32 32 VTop 2
WINDOW 3 0 32 VBottom 2
SYMATTR InstName C10
SYMATTR Value {Ctest*0.0382}
SYMATTR SpiceLine Rser={Rser}
SYMBOL res 624 16 R0
SYMATTR InstName RL
SYMATTR Value 50
SYMBOL cap 240 0 R0
SYMATTR InstName C11
SYMATTR Value {Ctest * 1.1048}
SYMATTR SpiceLine Rser={Rser}
SYMBOL voltage 352 96 R0
WINDOW 123 0 0 Left 0
WINDOW 39 0 0 Left 0
SYMATTR InstName V2
SYMATTR Value {Vtest*1.1048}
SYMBOL voltage -96 96 R0
WINDOW 123 0 0 Left 0
WINDOW 39 0 0 Left 0
SYMATTR InstName V3
SYMATTR Value {Vtest*1.1407}
SYMBOL voltage -512 96 R0
WINDOW 123 0 0 Left 0
WINDOW 39 0 0 Left 0
SYMATTR InstName V4
SYMATTR Value {Vtest*1.1386}
SYMBOL voltage -928 96 R0
WINDOW 123 0 0 Left 0
WINDOW 39 0 0 Left 0
SYMATTR InstName V5
SYMATTR Value {Vtest*1.1338}
SYMBOL voltage -1344 96 R0
WINDOW 123 0 0 Left 0
WINDOW 39 0 0 Left 0
SYMATTR InstName V6
SYMATTR Value {Vtest}
SYMBOL varactor -592 176 R180
WINDOW 0 24 64 Left 2
WINDOW 3 24 0 Left 2
SYMATTR InstName D3
SYMATTR Value MV2201
SYMATTR Type diode
SYMBOL varactor -1008 176 R180
WINDOW 0 24 64 Left 2
WINDOW 3 24 0 Left 2
SYMATTR InstName D4
SYMATTR Value MV2201
SYMATTR Type diode
SYMBOL varactor -1424 176 R180
WINDOW 0 24 64 Left 2
WINDOW 3 24 0 Left 2
SYMATTR InstName D5
SYMATTR Value MV2201
SYMATTR Type diode
SYMBOL varactor -176 176 R180
WINDOW 0 24 64 Left 2
WINDOW 3 24 0 Left 2
SYMATTR InstName D1
SYMATTR Value MV2201
SYMATTR Type diode
SYMBOL varactor 272 176 R180
WINDOW 0 24 64 Left 2
WINDOW 3 24 0 Left 2
SYMATTR InstName D2
SYMATTR Value MV2201
SYMATTR Type diode
TEXT -1632 -320 Left 2 !.ac dec 10000000 10Meg 300Meg
TEXT -1632 -272 Left 2 !.net I(RL) V1
TEXT -1168 -320 Left 2 ;5th Order Bessel Bandpass\nDirect-Coupled, Series Capacitor\nLower Cutoff Freq. = 107.9 MHz; Upper Cutoff Freq. = 108.1 MHz\n\n\nrf-tools.com | Aug 11 2024 21:13
TEXT -40 -328 Left 2 !.param Ctest 18p
TEXT -16 -256 Left 2 !.param Rser 0.1
TEXT -32 -200 Left 2 !.MODEL SMV1130-079LF d CJ0=25.8p Vj=10 M=3.7  Rs=0.8
TEXT 792 -256 Left 2 !.step param Vtest list 2.0 2.5 3.0 3.5 4.0 4.5 5.0
TEXT 1080 -80 Left 2 !.lib C:\\Users\\piyus\\knowledge\\EE\\fm_radio\\sims\\varactor_model.lib
