Version 4
SHEET 1 1300 680
WIRE -80 -48 -112 -48
WIRE 16 -48 0 -48
WIRE 128 -48 96 -48
WIRE -112 64 -112 -48
WIRE -32 64 -112 64
WIRE 128 64 128 -48
WIRE 128 64 32 64
WIRE -240 160 -320 160
WIRE -112 160 -112 64
WIRE -112 160 -176 160
WIRE -80 160 -112 160
WIRE 16 160 -16 160
WIRE 128 160 128 64
WIRE 128 160 16 160
WIRE -320 224 -320 160
WIRE 16 240 16 160
WIRE -320 368 -320 304
FLAG -320 368 0
FLAG 16 240 0
SYMBOL voltage -320 208 R0
WINDOW 3 -128 70 Left 2
WINDOW 123 -128 42 Left 2
WINDOW 39 0 0 Left 0
SYMATTR Value ""
SYMATTR Value2 AC 1 0
SYMATTR InstName V1
SYMBOL cap -16 144 R90
WINDOW 0 0 32 VBottom 2
WINDOW 3 32 32 VTop 2
SYMATTR InstName C1
SYMATTR Value 20p
SYMBOL cap -176 144 R90
WINDOW 0 0 32 VBottom 2
WINDOW 3 32 32 VTop 2
SYMATTR InstName C2
SYMATTR Value 20p
SYMBOL voltage 16 -48 R90
WINDOW 0 -32 56 VBottom 2
WINDOW 3 32 56 VTop 2
WINDOW 123 0 0 Left 0
WINDOW 39 0 0 Left 0
SYMATTR InstName V2
SYMATTR Value {Vtest}
SYMBOL res 112 -64 R90
WINDOW 0 0 56 VBottom 2
WINDOW 3 32 56 VTop 2
SYMATTR InstName R1
SYMATTR Value 1000000
SYMBOL varactor -32 80 R270
WINDOW 0 32 32 VTop 2
WINDOW 3 0 32 VBottom 2
SYMATTR InstName D1
SYMATTR Value MV2201
SYMATTR Type diode
TEXT 888 -56 Left 2 !.step param Vtest list 1 2 3 4 5
TEXT -576 40 Left 2 !.ac dec 10000000 10Meg 300Meg
TEXT 568 360 Left 2 !;.op dec 10000000 10Meg 300Meg
TEXT 888 8 Left 2 !;.step param Ctest list 10p 20p 30p
