Version 4
SHEET 1 2340 400
WIRE 64 0 0 0
WIRE 208 0 128 0
WIRE 416 0 208 0
WIRE 480 0 416 0
WIRE 624 0 544 0
WIRE 832 0 624 0
WIRE 896 0 832 0
WIRE 1040 0 960 0
WIRE 1248 0 1040 0
WIRE 1312 0 1248 0
WIRE 1456 0 1376 0
WIRE 1664 0 1456 0
WIRE 1728 0 1664 0
WIRE 1872 0 1792 0
WIRE 2080 0 1872 0
WIRE 2144 0 2080 0
WIRE 2288 0 2208 0
WIRE 0 64 0 0
WIRE 208 64 208 0
WIRE 416 64 416 0
WIRE 624 64 624 0
WIRE 832 64 832 0
WIRE 1040 64 1040 0
WIRE 1248 64 1248 0
WIRE 1456 64 1456 0
WIRE 1664 64 1664 0
WIRE 1872 64 1872 0
WIRE 2080 64 2080 0
WIRE 2288 64 2288 0
WIRE 0 208 0 144
WIRE 208 208 208 128
WIRE 416 208 416 144
WIRE 624 208 624 128
WIRE 832 208 832 144
WIRE 1040 208 1040 128
WIRE 1248 208 1248 144
WIRE 1456 208 1456 128
WIRE 1664 208 1664 144
WIRE 1872 208 1872 128
WIRE 2080 208 2080 144
WIRE 2288 208 2288 144
FLAG 0 208 0
FLAG 208 208 0
FLAG 416 208 0
FLAG 624 208 0
FLAG 832 208 0
FLAG 1040 208 0
FLAG 1248 208 0
FLAG 1456 208 0
FLAG 1664 208 0
FLAG 1872 208 0
FLAG 2080 208 0
FLAG 2288 208 0
SYMBOL voltage 0 48 R0
WINDOW 123 40 48 Left 2
WINDOW 39 39 77 Left 2
SYMATTR Value2 AC 1 0
SYMATTR SpiceLine Rser=50.00
SYMATTR InstName V1
SYMATTR Value ""
SYMBOL cap 64 16 R270
WINDOW 0 32 32 VTop 2
WINDOW 3 0 32 VBottom 2
SYMATTR InstName C1
SYMATTR Value {2.618p*scale1}
SYMBOL cap 192 64 R0
SYMATTR InstName C2
SYMATTR Value {18.98p*scale1}
SYMBOL ind 400 48 R0
SYMATTR InstName L2
SYMATTR Value 100.0n
SYMBOL cap 480 16 R270
WINDOW 0 32 32 VTop 2
WINDOW 3 0 32 VBottom 2
SYMATTR InstName C3
SYMATTR Value {135.2f*scale1*1.228}
SYMBOL cap 608 64 R0
SYMATTR InstName C4
SYMATTR Value {21.52p*scale1}
SYMBOL ind 816 48 R0
SYMATTR InstName L4
SYMATTR Value 100.0n
SYMBOL cap 896 16 R270
WINDOW 0 32 32 VTop 2
WINDOW 3 0 32 VBottom 2
SYMATTR InstName C5
SYMATTR Value {62.97f*scale1*1.228}
SYMBOL cap 1024 64 R0
SYMATTR InstName C6
SYMATTR Value {21.61p*scale1}
SYMBOL ind 1232 48 R0
SYMATTR InstName L6
SYMATTR Value 100.0n
SYMBOL cap 1312 16 R270
WINDOW 0 32 32 VTop 2
WINDOW 3 0 32 VBottom 2
SYMATTR InstName C7
SYMATTR Value {42.55f*scale1*1.228}
SYMBOL cap 1440 64 R0
SYMATTR InstName C8
SYMATTR Value {21.65p*scale1}
SYMBOL ind 1648 48 R0
SYMATTR InstName L8
SYMATTR Value 100.0n
SYMBOL cap 1728 16 R270
WINDOW 0 32 32 VTop 2
WINDOW 3 0 32 VBottom 2
SYMATTR InstName C9
SYMATTR Value {25.39f*scale1*1.228}
SYMBOL cap 1856 64 R0
SYMATTR InstName C10
SYMATTR Value {20.97p*scale1}
SYMBOL ind 2064 48 R0
SYMATTR InstName L10
SYMATTR Value 100.0n
SYMBOL cap 2144 16 R270
WINDOW 0 32 32 VTop 2
WINDOW 3 0 32 VBottom 2
SYMATTR InstName C11
SYMATTR Value {724.7f*scale1}
SYMBOL res 2272 48 R0
SYMATTR InstName RL
SYMATTR Value 50
TEXT 16 -288 Left 2 !.ac dec 1000001 86.00Meg 135.6Meg
TEXT 16 -240 Left 2 !.net I(RL) V1
TEXT 480 -288 Left 2 ;5th Order Bessel Bandpass\nDirect-Coupled, Series Capacitor\nLower Cutoff Freq. = 107.9 MHz; Upper Cutoff Freq. = 108.1 MHz\n\n\nrf-tools.com | Aug 22 2024 01:09
TEXT 1352 -312 Left 2 !.step param scale1 list 1 1.1 1.2 1.3 1.4 1.5 1.6
