Version 4
SHEET 1 2068 680
WIRE 128 32 -128 32
WIRE 128 64 128 32
WIRE 240 64 128 64
WIRE 432 64 304 64
WIRE -128 112 -128 32
WIRE -64 112 -128 112
WIRE 432 112 432 64
WIRE 528 112 432 112
WIRE 736 112 608 112
WIRE 128 176 128 64
WIRE 176 176 128 176
WIRE 304 176 240 176
WIRE 432 176 432 112
WIRE 432 176 384 176
FLAG -64 112 Cathode
IOPIN -64 112 BiDir
FLAG 736 112 Anode
IOPIN 736 112 BiDir
SYMBOL res 400 160 R90
WINDOW 0 0 56 VBottom 2
WINDOW 3 32 56 VTop 2
SYMATTR InstName R1
SYMATTR Value 0.8
SYMBOL ind 512 128 R270
WINDOW 0 32 56 VTop 2
WINDOW 3 5 56 VBottom 2
SYMATTR InstName L1
SYMATTR Value 0.7n
SYMBOL cap 304 48 R90
WINDOW 0 0 32 VBottom 2
WINDOW 3 32 32 VTop 2
SYMATTR InstName C2
SYMATTR Value 1.8p
SYMBOL varactor 240 160 R90
WINDOW 0 0 32 VBottom 2
WINDOW 3 32 32 VTop 2
SYMATTR InstName D1
SYMATTR Value S1672 area=1
SYMATTR Type diode
TEXT -16 392 Left 2 !.model S1672 D(Is=1e-14 Rs=0 N=1 Tt=0 Cjo=25.8p M=3.7 Vj=10 Eg=1.11 Xti=3 Kf=0 Af=1 Fc=0.5 Ibv=1e-3 Isr=0 Nr=2 Ikf=0 Ibv=0 Tnom=27)
