Version 4
SHEET 1 1728 680
WIRE 912 -272 672 -272
WIRE 912 -240 912 -272
WIRE 672 -128 672 -272
WIRE 912 -112 912 -160
WIRE 48 48 -32 48
WIRE 208 48 112 48
WIRE 448 48 272 48
WIRE 672 48 672 -48
WIRE 672 48 448 48
WIRE -32 112 -32 48
WIRE 448 176 448 112
WIRE -32 256 -32 192
FLAG -32 256 0
FLAG 912 -112 0
FLAG 448 176 0
SYMBOL voltage -32 96 R0
WINDOW 3 -128 70 Left 2
WINDOW 123 -128 42 Left 2
WINDOW 39 0 0 Left 0
SYMATTR Value ""
SYMATTR Value2 AC 1 0
SYMATTR InstName V1
SYMBOL cap 272 32 R90
WINDOW 0 0 32 VBottom 2
WINDOW 3 32 32 VTop 2
SYMATTR InstName C1
SYMATTR Value 20p
SYMBOL res 656 -144 R0
SYMATTR InstName R1
SYMATTR Value 1000000
SYMBOL voltage 912 -256 R0
WINDOW 3 24 44 Left 2
WINDOW 123 -128 42 Left 2
WINDOW 39 0 0 Left 0
SYMATTR Value {Vtest}
SYMATTR InstName V2
SYMBOL varactor 464 112 R180
WINDOW 0 24 64 Left 2
WINDOW 3 24 0 Left 2
SYMATTR InstName D1
SYMATTR Value MV2201
SYMATTR Type diode
SYMBOL cap 112 32 R90
WINDOW 0 0 32 VBottom 2
WINDOW 3 32 32 VTop 2
SYMATTR InstName C2
SYMATTR Value 20p
TEXT 344 -240 Left 2 !.param Ctest 18p
TEXT 1176 -168 Left 2 !.step param Vtest list 1 2 3 4 5
TEXT -288 -72 Left 2 !.ac dec 10000000 10Meg 300Meg
TEXT 856 248 Left 2 !;.op dec 10000000 10Meg 300Meg
TEXT 1176 -104 Left 2 !;.step param Ctest list 10p 20p 30p
